REMARK  Name = ZINC03194532
REMARK  6 active torsions:
REMARK  status: ('A' for Active; 'I' for Inactive)
REMARK    1  A    between atoms: C_7  and  C_11
REMARK    2  A    between atoms: N_12  and  N_13
REMARK    3  A    between atoms: C_14  and  C_16
REMARK    4  A    between atoms: C_19  and  N_22
REMARK    5  A    between atoms: N_22  and  S_23
REMARK    6  A    between atoms: S_23  and  C_26
REMARK                            x       y       z     vdW  Elec       q    Type
REMARK                         _______ _______ _______ _____ _____    ______ ____
ROOT
ATOM      1  C   UNL     1       4.109  -1.930  -4.275  0.00  0.00    +0.038 A 
ATOM      2  C   UNL     1       3.456  -3.164  -4.349  0.00  0.00    +0.015 A 
ATOM      3  C   UNL     1       2.466  -3.472  -3.445  0.00  0.00    +0.025 A 
ATOM      4  C   UNL     1       2.114  -2.556  -2.457  0.00  0.00    +0.048 A 
ATOM      5  C   UNL     1       2.758  -1.324  -2.384  0.00  0.00    +0.025 A 
ATOM      6  C   UNL     1       3.754  -1.013  -3.282  0.00  0.00    +0.015 A 
ENDROOT
BRANCH   1   8
ATOM      7  N   UNL     1       5.801  -0.408  -5.169  0.00  0.00    -0.203 N 
ATOM      8  C   UNL     1       5.172  -1.597  -5.242  0.00  0.00    +0.263 C 
ATOM      9  O   UNL     1       5.481  -2.397  -6.105  0.00  0.00    -0.268 OA
ATOM     10  H   UNL     1       5.555   0.230  -4.481  0.00  0.00    +0.178 HD
BRANCH   7  12
ATOM     11  C   UNL     1       7.417   1.056  -6.018  0.00  0.00    +0.140 C 
ATOM     12  N   UNL     1       6.810  -0.091  -6.088  0.00  0.00    -0.187 NA
BRANCH  11  19
ATOM     13  C   UNL     1       9.298  -1.267  -9.623  0.00  0.00    +0.001 A 
ATOM     14  C   UNL     1      10.294  -0.539 -10.259  0.00  0.00    +0.002 A 
ATOM     15  C   UNL     1      10.633   0.721  -9.818  0.00  0.00    +0.026 A 
ATOM     16  C   UNL     1       9.974   1.274  -8.724  0.00  0.00    +0.047 A 
ATOM     17  C   UNL     1       8.967   0.536  -8.081  0.00  0.00    +0.008 A 
ATOM     18  C   UNL     1       8.634  -0.738  -8.539  0.00  0.00    +0.010 A 
ATOM     19  C   UNL     1       8.477   1.388  -6.983  0.00  0.00    +0.020 A 
ATOM     20  C   UNL     1       9.193   2.543  -7.039  0.00  0.00    +0.093 A 
ATOM     21  N   UNL     1      10.087   2.480  -8.066  0.00  0.00    -0.360 N 
ATOM     22  H   UNL     1      10.710   3.185  -8.302  0.00  0.00    +0.165 HD
ENDBRANCH  11  19
ENDBRANCH   7  12
ENDBRANCH   1   8
BRANCH   4  23
ATOM     23  N   UNL     1       1.111  -2.870  -1.545  0.00  0.00    -0.216 N 
ATOM     24  H   UNL     1       0.239  -2.453  -1.621  0.00  0.00    +0.174 HD
BRANCH  23  25
ATOM     25  S   UNL     1       1.408  -3.954  -0.329  0.00  0.00    +0.072 S 
ATOM     26  O   UNL     1       1.972  -5.106  -0.941  0.00  0.00    -0.150 OA
ATOM     27  O   UNL     1       0.229  -4.012   0.461  0.00  0.00    -0.150 OA
BRANCH  25  28
ATOM     28  C   UNL     1       2.665  -3.260   0.693  0.00  0.00    +0.109 A 
ATOM     29  C   UNL     1       2.327  -2.375   1.699  0.00  0.00    +0.030 A 
ATOM     30  C   UNL     1       3.312  -1.831   2.501  0.00  0.00    +0.017 A 
ATOM     31  C   UNL     1       4.637  -2.172   2.296  0.00  0.00    +0.018 A 
ATOM     32  C   UNL     1       4.975  -3.057   1.288  0.00  0.00    +0.017 A 
ATOM     33  C   UNL     1       3.989  -3.601   0.487  0.00  0.00    +0.030 A 
ATOM     34 BR   UNL     1       5.986  -1.428   3.393  0.00  0.00    -0.050 Br
ENDBRANCH  25  28
ENDBRANCH  23  25
ENDBRANCH   4  23
TORSDOF 6
