REMARK  Name = ZINC14011670
REMARK  9 active torsions:
REMARK  status: ('A' for Active; 'I' for Inactive)
REMARK    1  A    between atoms: C_4  and  C_7
REMARK    2  A    between atoms: C_7  and  C_8
REMARK    3  A    between atoms: C_8  and  O_9
REMARK    4  A    between atoms: O_9  and  C_10
REMARK    5  A    between atoms: C_10  and  C_12
REMARK    6  A    between atoms: C_12  and  C_13
REMARK    7  A    between atoms: N_20  and  C_21
REMARK    8  A    between atoms: C_21  and  N_23
REMARK    9  A    between atoms: C_24  and  C_26
REMARK                            x       y       z     vdW  Elec       q    Type
REMARK                         _______ _______ _______ _____ _____    ______ ____
ROOT
ATOM      1  C   UNL     1       0.039  -0.036  -0.117  0.00  0.00    +0.171 C 
ATOM      2  C   UNL     1      -0.159   1.443   0.080  0.00  0.00    +0.234 C 
ATOM      3  O   UNL     1      -1.290   1.864   0.197  0.00  0.00    -0.274 OA
ATOM      4  N   UNL     1       0.852   2.312   0.126  0.00  0.00    -0.312 N 
ATOM      5  C   UNL     1       2.261   1.944   0.084  0.00  0.00    +0.123 C 
ATOM      6  C   UNL     1       2.443   0.562  -0.545  0.00  0.00    +0.126 C 
ATOM      7  N   UNL     1       1.464  -0.354   0.065  0.00  0.00    -0.299 N 
ATOM      8  H   UNL     1       0.634   3.254   0.192  0.00  0.00    +0.149 HD
ENDROOT
BRANCH   7   9
ATOM      9  C   UNL     1       1.857  -1.439   0.760  0.00  0.00    +0.140 C 
ATOM     10  S   UNL     1       3.524  -1.748   0.994  0.00  0.00    -0.018 S 
BRANCH   9  11
ATOM     11  N   UNL     1       0.937  -2.280   1.273  0.00  0.00    -0.264 N 
ATOM     12  C   UNL     1       1.329  -3.415   1.886  0.00  0.00    +0.251 C 
ATOM     13  O   UNL     1       2.512  -3.679   1.977  0.00  0.00    -0.270 OA
ATOM     14  H   UNL     1      -0.007  -2.070   1.200  0.00  0.00    +0.157 HD
BRANCH  12  15
ATOM     15  C   UNL     1       0.321  -4.337   2.447  0.00  0.00    +0.051 A 
ATOM     16  C   UNL     1      -1.039  -4.034   2.349  0.00  0.00    +0.014 A 
ATOM     17  C   UNL     1      -1.975  -4.902   2.872  0.00  0.00    +0.001 A 
ATOM     18  C   UNL     1      -1.569  -6.066   3.501  0.00  0.00    +0.001 A 
ATOM     19  C   UNL     1      -0.224  -6.371   3.607  0.00  0.00    +0.016 A 
ATOM     20  C   UNL     1       0.724  -5.514   3.084  0.00  0.00    +0.030 A 
ATOM     21 BR   UNL     1       2.562  -5.931   3.230  0.00  0.00    -0.050 Br
ENDBRANCH  12  15
ENDBRANCH   9  11
ENDBRANCH   7   9
BRANCH   1  22
ATOM     22  C   UNL     1      -0.397  -0.428  -1.530  0.00  0.00    +0.152 C 
BRANCH  22  23
ATOM     23  C   UNL     1      -0.352  -1.927  -1.672  0.00  0.00    +0.309 C 
ATOM     24  O   UNL     1      -0.146  -2.620  -0.704  0.00  0.00    -0.251 OA
BRANCH  23  25
ATOM     25  O   UNL     1      -0.540  -2.494  -2.874  0.00  0.00    -0.464 OA
BRANCH  25  26
ATOM     26  C   UNL     1      -0.483  -3.943  -2.936  0.00  0.00    +0.237 C 
BRANCH  26  27
ATOM     27  C   UNL     1      -0.719  -4.402  -4.377  0.00  0.00    +0.076 C 
BRANCH  27  31
ATOM     28  C   UNL     1      -0.551  -8.666  -4.560  0.00  0.00    +0.000 A 
ATOM     29  C   UNL     1      -1.756  -8.031  -4.319  0.00  0.00    +0.000 A 
ATOM     30  C   UNL     1      -1.810  -6.652  -4.260  0.00  0.00    +0.004 A 
ATOM     31  C   UNL     1      -0.660  -5.906  -4.441  0.00  0.00    -0.044 A 
ATOM     32  C   UNL     1       0.543  -6.541  -4.687  0.00  0.00    +0.004 A 
ATOM     33  C   UNL     1       0.598  -7.921  -4.742  0.00  0.00    +0.000 A 
ENDBRANCH  27  31
ENDBRANCH  26  27
ENDBRANCH  25  26
ENDBRANCH  23  25
ENDBRANCH  22  23
ENDBRANCH   1  22
TORSDOF 9
