REMARK  Name = ZINC39916676
REMARK  5 active torsions:
REMARK  status: ('A' for Active; 'I' for Inactive)
REMARK    1  A    between atoms: C_1  and  C_2
REMARK    2  A    between atoms: C_5  and  C_8
REMARK    3  A    between atoms: N_18  and  N_19
REMARK    4  A    between atoms: N_21  and  C_26
REMARK    5  A    between atoms: C_30  and  C_32
REMARK                            x       y       z     vdW  Elec       q    Type
REMARK                         _______ _______ _______ _____ _____    ______ ____
ROOT
ATOM      1  C   UNL     1      -0.702  -3.370  -0.230  0.00  0.00    +0.044 A 
ATOM      2  C   UNL     1       0.387  -3.822  -0.932  0.00  0.00    +0.025 A 
ATOM      3  C   UNL     1       0.715  -5.250  -0.833  0.00  0.00    +0.018 A 
ATOM      4  C   UNL     1       1.943  -5.736  -1.291  0.00  0.00    +0.011 A 
ATOM      5  C   UNL     1       2.227  -7.081  -1.183  0.00  0.00    +0.001 A 
ATOM      6  C   UNL     1       1.303  -7.950  -0.625  0.00  0.00    +0.004 A 
ATOM      7  C   UNL     1       0.084  -7.482  -0.169  0.00  0.00    +0.047 A 
ATOM      8  C   UNL     1      -0.221  -6.135  -0.270  0.00  0.00    +0.137 A 
ATOM      9  O   UNL     1      -1.416  -5.661   0.168  0.00  0.00    -0.437 OA
ATOM     10  C   UNL     1      -1.448  -4.358   0.571  0.00  0.00    +0.223 A 
ATOM     11  N   UNL     1      -2.126  -3.992   1.635  0.00  0.00    -0.244 N 
ATOM     12  H   UNL     1      -2.023  -3.096   1.992  0.00  0.00    +0.192 HD
ENDROOT
BRANCH   1  17
ATOM     13  C   UNL     1      -2.278   2.165  -0.386  0.00  0.00    +0.044 C 
ATOM     14  C   UNL     1      -1.865   0.717  -0.346  0.00  0.00    -0.050 A 
ATOM     15  C   UNL     1      -1.841  -0.026  -1.513  0.00  0.00    +0.004 A 
ATOM     16  C   UNL     1      -1.463  -1.353  -1.482  0.00  0.00    +0.009 A 
ATOM     17  C   UNL     1      -1.107  -1.945  -0.271  0.00  0.00    -0.013 A 
ATOM     18  C   UNL     1      -1.134  -1.192   0.903  0.00  0.00    +0.009 A 
ATOM     19  C   UNL     1      -1.508   0.136   0.858  0.00  0.00    +0.004 A 
ENDBRANCH   1  17
BRANCH  11  20
ATOM     20  N   UNL     1      -2.997  -4.897   2.255  0.00  0.00    -0.148 NA
ATOM     21  C   UNL     1      -2.964  -5.052   3.558  0.00  0.00    +0.187 C 
ATOM     22  N   UNL     1      -2.038  -4.548   4.456  0.00  0.00    -0.217 N 
ATOM     23  C   UNL     1      -2.117  -4.778   5.755  0.00  0.00    +0.236 C 
ATOM     24  O   UNL     1      -1.304  -4.335   6.538  0.00  0.00    -0.274 OA
ATOM     25  C   UNL     1      -3.290  -5.633   6.208  0.00  0.00    +0.173 C 
ATOM     26  S   UNL     1      -4.107  -5.956   4.591  0.00  0.00    -0.079 S 
BRANCH  22  27
ATOM     27  C   UNL     1      -0.982  -3.768   3.970  0.00  0.00    +0.043 A 
ATOM     28  C   UNL     1       0.007  -4.346   3.184  0.00  0.00    +0.024 A 
ATOM     29  C   UNL     1       1.047  -3.574   2.707  0.00  0.00    +0.002 A 
ATOM     30  C   UNL     1       1.107  -2.226   3.012  0.00  0.00    +0.003 A 
ATOM     31  C   UNL     1       0.124  -1.647   3.794  0.00  0.00    -0.049 A 
ATOM     32  C   UNL     1      -0.922  -2.413   4.269  0.00  0.00    +0.027 A 
ATOM     33  C   UNL     1       0.193  -0.178   4.124  0.00  0.00    +0.044 C 
ENDBRANCH  22  27
ENDBRANCH  11  20
TORSDOF 3
