REMARK  Name = ZINC20696356
REMARK  7 active torsions:
REMARK  status: ('A' for Active; 'I' for Inactive)
REMARK    1  A    between atoms: C_1  and  C_2
REMARK    2  A    between atoms: C_2  and  C_3
REMARK    3  A    between atoms: C_3  and  C_4
REMARK    4  A    between atoms: C_4  and  O_5
REMARK    5  A    between atoms: O_5  and  C_6
REMARK    6  A    between atoms: C_13  and  C_22
REMARK    7  A    between atoms: C_27  and  O_28
REMARK                            x       y       z     vdW  Elec       q    Type
REMARK                         _______ _______ _______ _____ _____    ______ ____
ROOT
ATOM      1  C   UNL     1      -2.798   3.955   3.908  0.00  0.00    +0.142 A 
ATOM      2  C   UNL     1      -3.795   4.815   3.489  0.00  0.00    +0.047 A 
ATOM      3  C   UNL     1      -3.949   5.097   2.144  0.00  0.00    +0.004 A 
ATOM      4  C   UNL     1      -3.098   4.519   1.222  0.00  0.00    +0.006 A 
ATOM      5  C   UNL     1      -2.096   3.663   1.631  0.00  0.00    -0.016 A 
ATOM      6  C   UNL     1      -1.934   3.357   2.983  0.00  0.00    +0.074 A 
ATOM      7  N   UNL     1      -0.975   2.470   3.475  0.00  0.00    -0.334 N 
ATOM      8  C   UNL     1      -0.023   1.916   2.499  0.00  0.00    +0.109 C 
ATOM      9  C   UNL     1      -0.825   1.630   1.238  0.00  0.00    +0.029 C 
ATOM     10  C   UNL     1      -1.161   3.043   0.667  0.00  0.00    +0.049 C 
ATOM     11  C   UNL     1      -1.532   2.758  -0.741  0.00  0.00    -0.023 C 
ATOM     12  C   UNL     1      -0.889   1.664  -1.134  0.00  0.00    -0.030 C 
ATOM     13  C   UNL     1      -0.052   1.107   0.021  0.00  0.00    +0.033 C 
ATOM     14  H   UNL     1      -0.907   2.180   4.534  0.00  0.00    +0.147 HD
ENDROOT
BRANCH   8  15
ATOM     15  C   UNL     1       1.069   2.917   2.221  0.00  0.00    +0.015 A 
ATOM     16  C   UNL     1       0.830   4.267   2.393  0.00  0.00    +0.024 A 
ATOM     17  C   UNL     1       1.833   5.185   2.142  0.00  0.00    +0.018 A 
ATOM     18  C   UNL     1       3.075   4.755   1.710  0.00  0.00    +0.019 A 
ATOM     19  C   UNL     1       3.317   3.407   1.533  0.00  0.00    +0.047 A 
ATOM     20  C   UNL     1       2.313   2.484   1.788  0.00  0.00    +0.122 A 
ATOM     21 BR   UNL     1       1.504   7.032   2.383  0.00  0.00    -0.050 Br
BRANCH  20  22
ATOM     22  O   UNL     1       2.549   1.156   1.614  0.00  0.00    -0.506 OA
ATOM     23  H   UNL     1       3.537   0.814   1.270  0.00  0.00    +0.292 HD
ENDBRANCH  20  22
ENDBRANCH   8  15
BRANCH   1  24
ATOM     24  O   UNL     1      -2.656   3.685   5.234  0.00  0.00    -0.490 OA
BRANCH  24  25
ATOM     25  C   UNL     1      -3.568   4.325   6.128  0.00  0.00    +0.229 C 
BRANCH  25  26
ATOM     26  C   UNL     1      -3.255   3.904   7.564  0.00  0.00    +0.041 C 
BRANCH  26  28
ATOM     27  C   UNL     1      -3.919   4.167   9.959  0.00  0.00    +0.004 C 
ATOM     28  C   UNL     1      -4.232   4.589   8.522  0.00  0.00    -0.000 C 
ENDBRANCH  26  28
ENDBRANCH  25  26
ENDBRANCH  24  25
ENDBRANCH   1  24
TORSDOF 6
