REMARK  Name = ZINC08327466
REMARK  5 active torsions:
REMARK  status: ('A' for Active; 'I' for Inactive)
REMARK    1  A    between atoms: C_4  and  C_7
REMARK    2  A    between atoms: C_7  and  C_9
REMARK    3  A    between atoms: C_7  and  N_16
REMARK    4  A    between atoms: C_17  and  C_19
REMARK    5  A    between atoms: C_19  and  N_20
REMARK                            x       y       z     vdW  Elec       q    Type
REMARK                         _______ _______ _______ _____ _____    ______ ____
ROOT
ATOM      1  N   UNL     1      -0.721   1.571  -1.179  0.00  0.00    -0.303 N 
ATOM      2  C   UNL     1      -1.773   0.883  -1.664  0.00  0.00    +0.232 C 
ATOM      3  O   UNL     1      -2.134  -0.139  -1.118  0.00  0.00    -0.274 OA
ATOM      4  H   UNL     1      -0.433   2.388  -1.615  0.00  0.00    +0.150 HD
ENDROOT
BRANCH   1   5
ATOM      5  C   UNL     1      -0.013   1.086   0.008  0.00  0.00    +0.134 C 
BRANCH   5   6
ATOM      6  C   UNL     1       1.401   1.607  -0.003  0.00  0.00    -0.023 A 
ATOM      7  C   UNL     1       1.657   2.903  -0.413  0.00  0.00    +0.007 A 
ATOM      8  C   UNL     1       2.953   3.383  -0.418  0.00  0.00    +0.020 A 
ATOM      9  C   UNL     1       3.995   2.564  -0.022  0.00  0.00    +0.041 A 
ATOM     10  C   UNL     1       3.740   1.267   0.383  0.00  0.00    +0.020 A 
ATOM     11  C   UNL     1       2.443   0.789   0.393  0.00  0.00    +0.007 A 
ATOM     12 CL   UNL     1       5.624   3.165  -0.035  0.00  0.00    -0.084 Cl
ENDBRANCH   5   6
BRANCH   5  16
ATOM     13  C   UNL     1      -2.012   2.463   3.523  0.00  0.00    +0.000 A 
ATOM     14  C   UNL     1      -1.502   1.179   3.476  0.00  0.00    +0.000 A 
ATOM     15  C   UNL     1      -0.855   0.734   2.339  0.00  0.00    +0.006 A 
ATOM     16  C   UNL     1      -0.718   1.572   1.248  0.00  0.00    -0.023 A 
ATOM     17  C   UNL     1      -1.223   2.858   1.297  0.00  0.00    +0.006 A 
ATOM     18  C   UNL     1      -1.874   3.302   2.432  0.00  0.00    +0.000 A 
ENDBRANCH   5  16
ENDBRANCH   1   5
BRANCH   2  19
ATOM     19  C   UNL     1      -2.502   1.382  -2.885  0.00  0.00    +0.213 C 
BRANCH  19  20
ATOM     20  N   UNL     1      -3.598   0.465  -3.209  0.00  0.00    -0.215 N 
ATOM     21  C   UNL     1      -4.853   0.581  -2.724  0.00  0.00    +0.247 C 
ATOM     22  O   UNL     1      -5.274   1.429  -1.968  0.00  0.00    -0.273 OA
ATOM     23  C   UNL     1      -5.619  -0.571  -3.325  0.00  0.00    +0.113 C 
ATOM     24  C   UNL     1      -6.797  -0.068  -4.170  0.00  0.00    +0.035 C 
ATOM     25  C   UNL     1      -7.901  -1.134  -3.946  0.00  0.00    +0.003 C 
ATOM     26  C   UNL     1      -7.720  -1.509  -2.453  0.00  0.00    +0.003 C 
ATOM     27  C   UNL     1      -6.190  -1.485  -2.239  0.00  0.00    +0.035 C 
ATOM     28  N   UNL     1      -4.636  -1.273  -4.152  0.00  0.00    -0.285 N 
ATOM     29  C   UNL     1      -3.481  -0.590  -4.026  0.00  0.00    +0.310 C 
ATOM     30  O   UNL     1      -2.448  -0.898  -4.588  0.00  0.00    -0.252 OA
ATOM     31  H   UNL     1      -4.787  -2.068  -4.687  0.00  0.00    +0.151 HD
ENDBRANCH  19  20
ENDBRANCH   2  19
TORSDOF 5
