REMARK  Name = ZINC58985206
REMARK  5 active torsions:
REMARK  status: ('A' for Active; 'I' for Inactive)
REMARK    1  A    between atoms: C_1  and  C_2
REMARK    2  A    between atoms: C_2  and  C_4
REMARK    3  A    between atoms: C_2  and  S_16
REMARK    4  A    between atoms: S_16  and  C_17
REMARK    5  A    between atoms: N_29  and  C_30
REMARK                            x       y       z     vdW  Elec       q    Type
REMARK                         _______ _______ _______ _____ _____    ______ ____
ROOT
ATOM      1  C   UNL     1      -0.019   1.526   0.010  0.00  0.00    +0.029 C 
ATOM      2  C   UNL     1       0.002  -0.004   0.002  0.00  0.00    +0.137 C 
ENDROOT
BRANCH   2   3
ATOM      3  C   UNL     1       0.731  -0.503   1.223  0.00  0.00    +0.232 C 
ATOM      4  O   UNL     1       0.105  -0.891   2.186  0.00  0.00    -0.274 OA
ATOM      5  N   UNL     1       2.079  -0.519   1.244  0.00  0.00    -0.264 N 
ATOM      6  C   UNL     1       2.748  -0.978   2.366  0.00  0.00    +0.165 A 
ATOM      7  N   UNL     1       2.252  -1.438   3.491  0.00  0.00    -0.225 NA
ATOM      8  C   UNL     1       3.031  -1.855   4.512  0.00  0.00    +0.080 A 
ATOM      9  C   UNL     1       2.627  -2.368   5.766  0.00  0.00    +0.029 A 
ATOM     10  C   UNL     1       3.555  -2.749   6.699  0.00  0.00    +0.002 A 
ATOM     11  C   UNL     1       4.917  -2.648   6.450  0.00  0.00    +0.001 A 
ATOM     12  C   UNL     1       5.348  -2.151   5.234  0.00  0.00    +0.017 A 
ATOM     13  C   UNL     1       4.425  -1.766   4.294  0.00  0.00    +0.041 A 
ATOM     14  S   UNL     1       4.509  -1.101   2.648  0.00  0.00    -0.052 S 
ATOM     15  H   UNL     1       2.579  -0.208   0.473  0.00  0.00    +0.157 HD
ENDBRANCH   2   3
BRANCH   2  16
ATOM     16  S   UNL     1      -1.700  -0.632   0.015  0.00  0.00    -0.075 S 
BRANCH  16  17
ATOM     17  C   UNL     1      -2.365  -0.093  -1.525  0.00  0.00    +0.173 A 
ATOM     18  N   UNL     1      -1.607   0.597  -2.354  0.00  0.00    -0.216 NA
ATOM     19  C   UNL     1      -2.084   1.015  -3.521  0.00  0.00    +0.117 A 
ATOM     20  C   UNL     1      -3.399   0.748  -3.928  0.00  0.00    +0.076 A 
ATOM     21  C   UNL     1      -3.787   1.275  -5.247  0.00  0.00    -0.023 A 
ATOM     22  C   UNL     1      -2.850   1.953  -5.929  0.00  0.00    -0.004 A 
ATOM     23  S   UNL     1      -1.415   1.940  -4.879  0.00  0.00    -0.073 S 
ATOM     24  C   UNL     1      -3.356   2.437  -7.261  0.00  0.00    +0.043 C 
ATOM     25  C   UNL     1      -4.628   1.600  -7.521  0.00  0.00    +0.010 C 
ATOM     26  C   UNL     1      -5.067   1.245  -6.086  0.00  0.00    +0.037 C 
ATOM     27  C   UNL     1      -4.199  -0.003  -3.011  0.00  0.00    +0.263 A 
ATOM     28  O   UNL     1      -5.355  -0.282  -3.282  0.00  0.00    -0.267 OA
ATOM     29  N   UNL     1      -3.655  -0.402  -1.846  0.00  0.00    -0.290 N 
ATOM     30  C   UNL     1      -4.464  -1.177  -0.902  0.00  0.00    +0.154 C 
ENDBRANCH  16  17
ENDBRANCH   2  16
TORSDOF 3
