REMARK  Name = ZINC39674481
REMARK  9 active torsions:
REMARK  status: ('A' for Active; 'I' for Inactive)
REMARK    1  A    between atoms: C_1  and  C_2
REMARK    2  A    between atoms: C_4  and  C_9
REMARK    3  A    between atoms: C_5  and  C_8
REMARK    4  A    between atoms: C_9  and  C_11
REMARK    5  A    between atoms: C_9  and  N_12
REMARK    6  A    between atoms: C_13  and  C_15
REMARK    7  A    between atoms: C_26  and  C_28
REMARK    8  A    between atoms: C_31  and  O_34
REMARK    9  A    between atoms: O_34  and  C_35
REMARK                            x       y       z     vdW  Elec       q    Type
REMARK                         _______ _______ _______ _____ _____    ______ ____
ROOT
ATOM      1  C   UNL     1      -0.419   2.625  -4.217  0.00  0.00    +0.100 C 
ATOM      2  C   UNL     1      -1.623   3.478  -3.757  0.00  0.00    +0.121 C 
ATOM      3  N   UNL     1      -1.881   4.401  -4.888  0.00  0.00    -0.296 N 
ATOM      4  C   UNL     1      -1.671   3.570  -6.098  0.00  0.00    +0.115 C 
ATOM      5  C   UNL     1      -0.454   2.687  -5.753  0.00  0.00    -0.004 C 
ATOM      6  C   UNL     1      -0.636   1.288  -6.334  0.00  0.00    -0.010 C 
ATOM      7  C   UNL     1      -0.610   1.369  -7.863  0.00  0.00    -0.082 C 
ATOM      8  N   UNL     1       0.669   1.940  -8.303  0.00  0.00    +0.379 N 
ATOM      9  C   UNL     1       0.794   3.320  -7.817  0.00  0.00    -0.082 C 
ATOM     10  C   UNL     1       0.827   3.322  -6.286  0.00  0.00    -0.010 C 
ATOM     11  C   UNL     1      -2.229   5.701  -4.830  0.00  0.00    +0.248 C 
ATOM     12  O   UNL     1      -2.255   6.276  -3.758  0.00  0.00    -0.270 OA
ATOM     13  H   UNL     1       1.428   1.386  -7.936  0.00  0.00    -0.086 HD
ATOM     14  H   UNL     1       0.709   1.936  -9.311  0.00  0.00    -0.086 HD
ENDROOT
BRANCH  11  15
ATOM     15  C   UNL     1      -2.578   6.428  -6.066  0.00  0.00    +0.055 A 
ATOM     16  C   UNL     1      -2.939   5.727  -7.226  0.00  0.00    +0.020 A 
ATOM     17  C   UNL     1      -3.256   6.451  -8.357  0.00  0.00    +0.068 A 
ATOM     18  C   UNL     1      -3.208   7.841  -8.311  0.00  0.00    +0.220 A 
ATOM     19  N   UNL     1      -2.863   8.474  -7.200  0.00  0.00    -0.220 NA
ATOM     20  C   UNL     1      -2.558   7.823  -6.097  0.00  0.00    +0.127 A 
BRANCH  18  21
ATOM     21  O   UNL     1      -3.519   8.557  -9.418  0.00  0.00    -0.438 OA
BRANCH  21  22
ATOM     22  C   UNL     1      -3.358   9.906  -9.372  0.00  0.00    +0.130 A 
ATOM     23  C   UNL     1      -2.089  10.458  -9.470  0.00  0.00    +0.046 A 
ATOM     24  C   UNL     1      -1.929  11.829  -9.422  0.00  0.00    +0.004 A 
ATOM     25  C   UNL     1      -3.031  12.651  -9.277  0.00  0.00    +0.000 A 
ATOM     26  C   UNL     1      -4.297  12.103  -9.179  0.00  0.00    +0.004 A 
ATOM     27  C   UNL     1      -4.463  10.733  -9.232  0.00  0.00    +0.046 A 
ENDBRANCH  21  22
ENDBRANCH  18  21
ENDBRANCH  11  15
BRANCH   1  29
ATOM     28  N   UNL     1       0.513   0.418  -3.602  0.00  0.00    -0.309 N 
ATOM     29  C   UNL     1      -0.574   1.202  -3.745  0.00  0.00    +0.219 C 
ATOM     30  O   UNL     1      -1.676   0.762  -3.495  0.00  0.00    -0.275 OA
ATOM     31  H   UNL     1       1.395   0.770  -3.802  0.00  0.00    +0.149 HD
BRANCH  28  32
ATOM     32  C   UNL     1       0.363  -0.965  -3.143  0.00  0.00    +0.100 C 
ATOM     33  C   UNL     1       0.194  -0.984  -1.623  0.00  0.00    +0.033 C 
BRANCH  32  36
ATOM     34  C   UNL     1       3.492  -0.130  -3.676  0.00  0.00    +0.039 C 
ATOM     35  C   UNL     1       3.032  -1.486  -3.137  0.00  0.00    +0.154 C 
ATOM     36  C   UNL     1       1.589  -1.756  -3.522  0.00  0.00    -0.001 C 
ATOM     37  C   UNL     1       1.657  -2.857  -4.274  0.00  0.00    +0.063 C 
ATOM     38  N   UNL     1       2.936  -3.279  -4.391  0.00  0.00    -0.159 NA
ATOM     39  N   UNL     1       3.765  -2.583  -3.792  0.00  0.00    -0.180 NA
ATOM     40  C   UNL     1       0.470  -3.536  -4.908  0.00  0.00    +0.067 C 
ENDBRANCH  32  36
ENDBRANCH  28  32
ENDBRANCH   1  29
TORSDOF 6
