REMARK  Name = ZINC00954744
REMARK  8 active torsions:
REMARK  status: ('A' for Active; 'I' for Inactive)
REMARK    1  A    between atoms: C_1  and  C_2
REMARK    2  A    between atoms: C_2  and  O_3
REMARK    3  A    between atoms: O_3  and  C_4
REMARK    4  A    between atoms: C_9  and  C_10
REMARK    5  A    between atoms: N_11  and  N_12
REMARK    6  A    between atoms: C_13  and  C_15
REMARK    7  A    between atoms: C_15  and  N_16
REMARK    8  A    between atoms: C_27  and  C_31
REMARK                            x       y       z     vdW  Elec       q    Type
REMARK                         _______ _______ _______ _____ _____    ______ ____
ROOT
ATOM      1  N   UNL     1       2.423   0.718  -4.301  0.00  0.00    -0.206 N 
ATOM      2  C   UNL     1       2.322   2.053  -4.146  0.00  0.00    +0.252 C 
ATOM      3  O   UNL     1       1.765   2.509  -3.170  0.00  0.00    -0.272 OA
ATOM      4  H   UNL     1       2.868   0.352  -5.082  0.00  0.00    +0.177 HD
ENDROOT
BRANCH   1   6
ATOM      5  C   UNL     1       1.985  -1.428  -3.483  0.00  0.00    +0.142 C 
ATOM      6  N   UNL     1       1.887  -0.142  -3.334  0.00  0.00    -0.188 NA
BRANCH   5  12
ATOM      7  C   UNL     1       0.777  -1.809  -1.336  0.00  0.00    +0.129 A 
ATOM      8  C   UNL     1       0.254  -2.668  -0.383  0.00  0.00    +0.047 A 
ATOM      9  C   UNL     1       0.356  -4.036  -0.552  0.00  0.00    +0.019 A 
ATOM     10  C   UNL     1       0.992  -4.558  -1.666  0.00  0.00    +0.019 A 
ATOM     11  C   UNL     1       1.523  -3.717  -2.622  0.00  0.00    +0.028 A 
ATOM     12  C   UNL     1       1.420  -2.333  -2.466  0.00  0.00    +0.037 A 
ATOM     13 BR   UNL     1       1.131  -6.432  -1.879  0.00  0.00    -0.050 Br
BRANCH   7  14
ATOM     14  O   UNL     1       0.671  -0.465  -1.174  0.00  0.00    -0.492 OA
BRANCH  14  16
ATOM     15  C   UNL     1      -0.019   1.526   0.010  0.00  0.00    +0.048 C 
ATOM     16  C   UNL     1       0.002  -0.004   0.002  0.00  0.00    +0.226 C 
ENDBRANCH  14  16
ENDBRANCH   7  14
ENDBRANCH   5  12
ENDBRANCH   1   6
BRANCH   2  17
ATOM     17  C   UNL     1       2.899   2.978  -5.186  0.00  0.00    +0.223 C 
BRANCH  17  18
ATOM     18  N   UNL     1       2.660   4.368  -4.790  0.00  0.00    -0.290 N 
ATOM     19  C   UNL     1       1.524   4.989  -5.197  0.00  0.00    +0.203 A 
ATOM     20  N   UNL     1       1.272   6.226  -4.860  0.00  0.00    -0.230 NA
ATOM     21  C   UNL     1       2.128   6.919  -4.115  0.00  0.00    +0.116 A 
ATOM     22  C   UNL     1       3.332   6.364  -3.652  0.00  0.00    +0.076 A 
ATOM     23  C   UNL     1       3.575   5.004  -4.035  0.00  0.00    +0.263 A 
ATOM     24  O   UNL     1       4.593   4.434  -3.682  0.00  0.00    -0.267 OA
ATOM     25  C   UNL     1       4.174   7.245  -2.845  0.00  0.00    -0.023 A 
ATOM     26  C   UNL     1       3.717   8.496  -2.624  0.00  0.00    -0.004 A 
ATOM     27  S   UNL     1       2.159   8.571  -3.466  0.00  0.00    -0.073 S 
ATOM     28  C   UNL     1       4.386   9.581  -1.837  0.00  0.00    +0.046 C 
ATOM     29  C   UNL     1       5.854   9.188  -1.621  0.00  0.00    -0.009 C 
ATOM     30  C   UNL     1       5.907   7.737  -1.133  0.00  0.00    +0.008 C 
ATOM     31  C   UNL     1       5.513   6.792  -2.269  0.00  0.00    +0.037 C 
ATOM     32  C   UNL     1       6.482  10.106  -0.570  0.00  0.00    +0.008 C 
ENDBRANCH  17  18
ENDBRANCH   2  17
TORSDOF 6
