REMARK  Name = ZINC58275437
REMARK  10 active torsions:
REMARK  status: ('A' for Active; 'I' for Inactive)
REMARK    1  A    between atoms: C_1  and  C_2
REMARK    2  A    between atoms: C_5  and  C_8
REMARK    3  A    between atoms: C_9  and  S_10
REMARK    4  A    between atoms: S_10  and  N_13
REMARK    5  A    between atoms: N_13  and  C_14
REMARK    6  A    between atoms: C_14  and  C_15
REMARK    7  A    between atoms: N_17  and  C_18
REMARK    8  A    between atoms: C_18  and  C_19
REMARK    9  A    between atoms: C_19  and  N_20
REMARK   10  A    between atoms: C_22  and  C_27
REMARK                            x       y       z     vdW  Elec       q    Type
REMARK                         _______ _______ _______ _____ _____    ______ ____
ROOT
ATOM      1  C   UNL     1       3.010  -7.697   3.627  0.00  0.00    +0.229 C 
ATOM      2  O   UNL     1       3.546  -8.459   2.850  0.00  0.00    -0.274 OA
ATOM      3  N   UNL     1       3.463  -7.594   4.892  0.00  0.00    -0.313 N 
ATOM      4  H   UNL     1       3.034  -6.985   5.513  0.00  0.00    +0.149 HD
ENDROOT
BRANCH   1   5
ATOM      5  C   UNL     1       1.837  -6.864   3.177  0.00  0.00    +0.201 C 
BRANCH   5   6
ATOM      6  N   UNL     1       1.542  -7.156   1.772  0.00  0.00    -0.182 NA
ATOM      7  H   UNL     1       2.192  -7.627   1.227  0.00  0.00    +0.149 HD
BRANCH   6   8
ATOM      8  S   UNL     1       0.098  -6.682   1.113  0.00  0.00    +0.052 S 
ATOM      9  O   UNL     1      -0.917  -7.106   2.012  0.00  0.00    -0.154 OA
ATOM     10  O   UNL     1       0.123  -7.080  -0.251  0.00  0.00    -0.154 OA
BRANCH   8  12
ATOM     11  C   UNL     1       0.060  -4.251  -0.021  0.00  0.00    +0.028 C 
ATOM     12  C   UNL     1       0.074  -4.920   1.123  0.00  0.00    +0.153 C 
BRANCH  11  17
ATOM     13  C   UNL     1      -0.018   1.503   0.010  0.00  0.00    +0.044 C 
ATOM     14  C   UNL     1       0.002  -0.004   0.002  0.00  0.00    -0.050 A 
ATOM     15  C   UNL     1       0.006  -0.686  -1.202  0.00  0.00    +0.004 A 
ATOM     16  C   UNL     1       0.024  -2.066  -1.216  0.00  0.00    +0.008 A 
ATOM     17  C   UNL     1       0.040  -2.773  -0.013  0.00  0.00    -0.024 A 
ATOM     18  C   UNL     1       0.037  -2.079   1.197  0.00  0.00    +0.008 A 
ATOM     19  C   UNL     1       0.023  -0.699   1.198  0.00  0.00    +0.004 A 
ENDBRANCH  11  17
ENDBRANCH   8  12
ENDBRANCH   6   8
ENDBRANCH   5   6
ENDBRANCH   1   5
BRANCH   3  20
ATOM     20  C   UNL     1       4.603  -8.403   5.330  0.00  0.00    +0.123 C 
BRANCH  20  21
ATOM     21  C   UNL     1       4.911  -8.099   6.797  0.00  0.00    +0.121 C 
BRANCH  21  22
ATOM     22  N   UNL     1       6.051  -8.908   7.234  0.00  0.00    -0.327 N 
ATOM     23  C   UNL     1       6.516  -8.803   8.534  0.00  0.00    +0.136 A 
ATOM     24  C   UNL     1       7.614  -9.577   8.948  0.00  0.00    +0.091 A 
ATOM     25  C   UNL     1       8.067  -9.453  10.266  0.00  0.00    +0.024 A 
ATOM     26  C   UNL     1       7.410  -8.570  11.107  0.00  0.00    +0.021 A 
ATOM     27  C   UNL     1       6.337  -7.843  10.626  0.00  0.00    +0.113 A 
ATOM     28  N   UNL     1       5.929  -7.970   9.378  0.00  0.00    -0.239 NA
ATOM     29  H   UNL     1       6.480  -9.518   6.614  0.00  0.00    +0.148 HD
BRANCH  24  30
ATOM     30  C   UNL     1       8.258 -10.476   8.038  0.00  0.00    +0.103 C 
ATOM     31  N   UNL     1       8.768 -11.189   7.316  0.00  0.00    -0.191 NA
ENDBRANCH  24  30
ENDBRANCH  21  22
ENDBRANCH  20  21
ENDBRANCH   3  20
TORSDOF 9
