REMARK  Name = ZINC55142307
REMARK  5 active torsions:
REMARK  status: ('A' for Active; 'I' for Inactive)
REMARK    1  A    between atoms: C_3  and  C_7
REMARK    2  A    between atoms: N_13  and  C_14
REMARK    3  A    between atoms: C_14  and  C_15
REMARK    4  A    between atoms: C_16  and  C_17
REMARK    5  A    between atoms: C_17  and  O_24
REMARK                            x       y       z     vdW  Elec       q    Type
REMARK                         _______ _______ _______ _____ _____    ______ ____
ROOT
ATOM      1  C   UNL     1       3.696   2.049  -0.023  0.00  0.00    +0.089 C 
ATOM      2  C   UNL     1       4.278   2.060   1.393  0.00  0.00    +0.024 C 
ATOM      3  C   UNL     1       5.639   2.760   1.375  0.00  0.00    +0.003 C 
ATOM      4  C   UNL     1       6.563   2.038   0.391  0.00  0.00    +0.015 C 
ATOM      5  C   UNL     1       5.915   2.028  -0.996  0.00  0.00    +0.086 C 
ATOM      6  N   UNL     1       4.617   1.346  -0.926  0.00  0.00    -0.285 NA
ENDROOT
BRANCH   1   9
ATOM      7  C   UNL     1      -0.017   1.378   0.010  0.00  0.00    +0.020 A 
ATOM      8  C   UNL     1       1.185   2.070   0.002  0.00  0.00    +0.008 A 
ATOM      9  C   UNL     1       2.365   1.343  -0.013  0.00  0.00    -0.012 A 
ATOM     10  C   UNL     1       2.305  -0.038  -0.020  0.00  0.00    +0.115 A 
ATOM     11  N   UNL     1       1.144  -0.663  -0.013  0.00  0.00    -0.263 NA
ATOM     12  C   UNL     1       0.002  -0.004   0.002  0.00  0.00    +0.111 A 
ENDBRANCH   1   9
BRANCH   6  13
ATOM     13  C   UNL     1       4.029   1.195  -2.263  0.00  0.00    +0.174 C 
BRANCH  13  14
ATOM     14  C   UNL     1       4.864   0.286  -3.066  0.00  0.00    -0.084 C 
ATOM     15  C   UNL     1       5.530  -0.438  -3.707  0.00  0.00    -0.066 C 
BRANCH  15  16
ATOM     16  C   UNL     1       6.365  -1.346  -4.510  0.00  0.00    +0.126 C 
ATOM     17  C   UNL     1       7.746  -0.767  -4.656  0.00  0.00    +0.048 C 
ATOM     18  C   UNL     1       7.758   0.768  -4.525  0.00  0.00    +0.004 C 
ATOM     19  C   UNL     1       6.581   1.440  -5.258  0.00  0.00    +0.000 C 
ATOM     20  C   UNL     1       6.312   0.821  -6.603  0.00  0.00    +0.000 C 
ATOM     21  C   UNL     1       5.220  -0.256  -6.437  0.00  0.00    +0.004 C 
ATOM     22  C   UNL     1       5.750  -1.507  -5.916  0.00  0.00    +0.048 C 
BRANCH  16  23
ATOM     23  O   UNL     1       6.440  -2.621  -3.870  0.00  0.00    -0.377 OA
ATOM     24  H   UNL     1       6.823  -2.594  -2.982  0.00  0.00    +0.211 HD
ENDBRANCH  16  23
ENDBRANCH  15  16
ENDBRANCH  13  14
ENDBRANCH   6  13
TORSDOF 5
