REMARK  Name = ZINC39912321
REMARK  14 active torsions:
REMARK  status: ('A' for Active; 'I' for Inactive)
REMARK    1  A    between atoms: C_1  and  C_2
REMARK    2  A    between atoms: C_2  and  C_3
REMARK    3  A    between atoms: C_3  and  O_4
REMARK    4  A    between atoms: O_4  and  C_5
REMARK    5  A    between atoms: C_8  and  C_14
REMARK    6  A    between atoms: C_10  and  O_11
REMARK    7  A    between atoms: O_11  and  C_12
REMARK    8  A    between atoms: C_12  and  C_13
REMARK    9  A    between atoms: C_17  and  C_32
REMARK   10  A    between atoms: N_24  and  C_25
REMARK   11  A    between atoms: C_25  and  C_26
REMARK   12  A    between atoms: C_34  and  C_40
REMARK   13  A    between atoms: C_36  and  C_39
REMARK   14  A    between atoms: C_37  and  O_38
REMARK                            x       y       z     vdW  Elec       q    Type
REMARK                         _______ _______ _______ _____ _____    ______ ____
ROOT
ATOM      1  C   UNL     1      -6.298  -4.421   0.925  0.00  0.00    +0.142 C 
ATOM      2  C   UNL     1      -6.628  -4.396   2.392  0.00  0.00    +0.035 A 
ATOM      3  C   UNL     1      -6.264  -4.772   3.690  0.00  0.00    +0.102 A 
ATOM      4  N   UNL     1      -7.189  -4.310   4.508  0.00  0.00    -0.173 NA
ATOM      5  N   UNL     1      -8.100  -3.679   3.857  0.00  0.00    -0.272 N 
ATOM      6  H   UNL     1      -8.877  -3.255   4.254  0.00  0.00    +0.189 HD
ATOM      7  C   UNL     1      -7.812  -3.695   2.522  0.00  0.00    +0.126 A 
ATOM      8  C   UNL     1      -8.250  -3.269   1.188  0.00  0.00    +0.266 C 
ATOM      9  O   UNL     1      -9.259  -2.630   0.959  0.00  0.00    -0.268 OA
ATOM     10  N   UNL     1      -7.377  -3.687   0.251  0.00  0.00    -0.281 N 
ENDROOT
BRANCH   3  11
ATOM     11  C   UNL     1      -5.060  -5.549   4.074  0.00  0.00    +0.044 A 
ATOM     12  C   UNL     1      -4.232  -6.087   3.092  0.00  0.00    +0.017 A 
ATOM     13  C   UNL     1      -3.112  -6.809   3.454  0.00  0.00    -0.049 A 
ATOM     14  C   UNL     1      -2.809  -7.000   4.790  0.00  0.00    +0.010 A 
ATOM     15  C   UNL     1      -3.624  -6.471   5.773  0.00  0.00    -0.008 A 
ATOM     16  C   UNL     1      -4.748  -5.739   5.423  0.00  0.00    +0.129 A 
ATOM     17  C   UNL     1      -3.288  -6.685   7.226  0.00  0.00    +0.047 C 
ATOM     18  C   UNL     1      -2.218  -7.391   2.390  0.00  0.00    +0.044 C 
BRANCH  16  19
ATOM     19  O   UNL     1      -5.546  -5.213   6.388  0.00  0.00    -0.506 OA
ATOM     20  H   UNL     1      -6.258  -5.802   6.674  0.00  0.00    +0.292 HD
ENDBRANCH  16  19
ENDBRANCH   3  11
BRANCH   1  24
ATOM     21  C   UNL     1      -2.544  -2.496   0.226  0.00  0.00    +0.162 A 
ATOM     22  C   UNL     1      -2.665  -3.866   0.058  0.00  0.00    +0.050 A 
ATOM     23  C   UNL     1      -3.880  -4.485   0.285  0.00  0.00    +0.009 A 
ATOM     24  C   UNL     1      -4.976  -3.741   0.679  0.00  0.00    -0.019 A 
ATOM     25  C   UNL     1      -4.862  -2.373   0.849  0.00  0.00    +0.055 A 
ATOM     26  C   UNL     1      -3.646  -1.747   0.629  0.00  0.00    +0.162 A 
BRANCH  21  27
ATOM     27  O   UNL     1      -1.350  -1.885   0.004  0.00  0.00    -0.488 OA
BRANCH  27  28
ATOM     28  C   UNL     1      -0.262  -2.716  -0.407  0.00  0.00    +0.229 C 
BRANCH  28  30
ATOM     29  C   UNL     1       2.152  -2.748  -1.048  0.00  0.00    +0.007 C 
ATOM     30  C   UNL     1       0.988  -1.858  -0.607  0.00  0.00    +0.038 C 
ENDBRANCH  28  30
ENDBRANCH  27  28
ENDBRANCH  21  27
BRANCH  26  31
ATOM     31  O   UNL     1      -3.531  -0.403   0.800  0.00  0.00    -0.489 OA
BRANCH  31  32
ATOM     32  C   UNL     1      -4.691   0.294   1.259  0.00  0.00    +0.226 C 
ATOM     33  C   UNL     1      -4.354   1.774   1.450  0.00  0.00    +0.048 C 
ENDBRANCH  31  32
ENDBRANCH  26  31
ENDBRANCH   1  24
BRANCH  10  34
ATOM     34  C   UNL     1      -7.484  -3.451  -1.191  0.00  0.00    +0.144 C 
BRANCH  34  35
ATOM     35  C   UNL     1      -8.253  -4.579  -1.829  0.00  0.00    -0.030 A 
ATOM     36  C   UNL     1      -7.584  -5.697  -2.291  0.00  0.00    +0.005 A 
ATOM     37  C   UNL     1      -8.289  -6.731  -2.877  0.00  0.00    +0.000 A 
ATOM     38  C   UNL     1      -9.664  -6.648  -3.000  0.00  0.00    +0.000 A 
ATOM     39  C   UNL     1     -10.333  -5.530  -2.538  0.00  0.00    +0.000 A 
ATOM     40  C   UNL     1      -9.628  -4.498  -1.948  0.00  0.00    +0.005 A 
ENDBRANCH  34  35
ENDBRANCH  10  34
TORSDOF 10
