REMARK  Name = ZINC05431430
REMARK  10 active torsions:
REMARK  status: ('A' for Active; 'I' for Inactive)
REMARK    1  A    between atoms: C_1  and  C_2
REMARK    2  A    between atoms: C_2  and  C_3
REMARK    3  A    between atoms: C_3  and  C_5
REMARK    4  A    between atoms: C_3  and  N_6
REMARK    5  A    between atoms: C_9  and  O_11
REMARK    6  A    between atoms: C_12  and  C_19
REMARK    7  A    between atoms: C_22  and  O_25
REMARK    8  A    between atoms: O_25  and  C_26
REMARK    9  A    between atoms: C_26  and  C_27
REMARK   10  A    between atoms: C_26  and  C_28
REMARK                            x       y       z     vdW  Elec       q    Type
REMARK                         _______ _______ _______ _____ _____    ______ ____
ROOT
ATOM      1  N   UNL     1      -1.120  -1.874  -0.623  0.00  0.00    -0.244 N 
ATOM      2  C   UNL     1      -1.854  -2.684  -1.457  0.00  0.00    +0.132 A 
ATOM      3  C   UNL     1      -1.615  -3.959  -1.082  0.00  0.00    +0.072 A 
ATOM      4  C   UNL     1      -0.713  -3.927   0.008  0.00  0.00    +0.238 A 
ATOM      5  N   UNL     1      -0.420  -2.683   0.271  0.00  0.00    -0.131 NA
ATOM      6  C   UNL     1      -2.142  -5.245  -1.637  0.00  0.00    +0.115 C 
ATOM      7  S   UNL     1      -2.408  -5.197  -3.411  0.00  0.00    -0.138 S 
ATOM      8  C   UNL     1      -3.764  -4.047  -3.679  0.00  0.00    +0.166 C 
ATOM      9  C   UNL     1      -3.398  -2.645  -3.384  0.00  0.00    +0.228 C 
ATOM     10  O   UNL     1      -3.872  -1.824  -4.141  0.00  0.00    -0.275 OA
ATOM     11  N   UNL     1      -2.649  -2.153  -2.444  0.00  0.00    -0.270 N 
ATOM     12  H   UNL     1      -2.652  -1.183  -2.436  0.00  0.00    +0.156 HD
ENDROOT
BRANCH   6  13
ATOM     13  C   UNL     1      -1.160  -6.345  -1.327  0.00  0.00    -0.030 A 
ATOM     14  C   UNL     1       0.137  -6.265  -1.800  0.00  0.00    +0.008 A 
ATOM     15  C   UNL     1       1.040  -7.272  -1.518  0.00  0.00    +0.046 A 
ATOM     16  C   UNL     1       0.644  -8.364  -0.760  0.00  0.00    +0.121 A 
ATOM     17  C   UNL     1      -0.657  -8.442  -0.286  0.00  0.00    +0.046 A 
ATOM     18  C   UNL     1      -1.555  -7.430  -0.566  0.00  0.00    +0.008 A 
BRANCH  16  19
ATOM     19  O   UNL     1       1.530  -9.356  -0.481  0.00  0.00    -0.489 OA
BRANCH  19  20
ATOM     20  C   UNL     1       1.025 -10.505   0.201  0.00  0.00    +0.167 C 
ATOM     21  C   UNL     1       1.911 -11.713  -0.108  0.00  0.00    +0.051 C 
ATOM     22  C   UNL     1       1.025 -10.244   1.709  0.00  0.00    +0.051 C 
ENDBRANCH  19  20
ENDBRANCH  16  19
ENDBRANCH   6  13
BRANCH   1  23
ATOM     23  C   UNL     1      -1.076  -0.410  -0.671  0.00  0.00    +0.106 C 
ATOM     24  C   UNL     1      -1.557   0.158   0.666  0.00  0.00    +0.032 C 
BRANCH  23  26
ATOM     25  C   UNL     1       0.385   1.569  -1.106  0.00  0.00    +0.006 C 
ATOM     26  C   UNL     1       0.359   0.049  -0.933  0.00  0.00    +0.023 C 
ENDBRANCH  23  26
ENDBRANCH   1  23
BRANCH   4  27
ATOM     27  O   UNL     1      -0.229  -5.012   0.669  0.00  0.00    -0.491 OA
ATOM     28  H   UNL     1       0.592  -5.365   0.298  0.00  0.00    +0.294 HD
ENDBRANCH   4  27
TORSDOF 6
