REMARK  Name = ZINC40739331
REMARK  7 active torsions:
REMARK  status: ('A' for Active; 'I' for Inactive)
REMARK    1  A    between atoms: C_1  and  C_2
REMARK    2  A    between atoms: C_7  and  C_8
REMARK    3  A    between atoms: C_8  and  O_9
REMARK    4  A    between atoms: O_9  and  C_10
REMARK    5  A    between atoms: C_15  and  C_16
REMARK    6  A    between atoms: C_16  and  N_17
REMARK    7  A    between atoms: N_17  and  C_18
REMARK                            x       y       z     vdW  Elec       q    Type
REMARK                         _______ _______ _______ _____ _____    ______ ____
ROOT
ATOM      1  C   UNL     1       0.053  -0.377   4.844  0.00  0.00    +0.122 A 
ATOM      2  C   UNL     1       0.031   0.997   5.035  0.00  0.00    +0.047 A 
ATOM      3  C   UNL     1       0.036   1.516   6.314  0.00  0.00    +0.019 A 
ATOM      4  C   UNL     1       0.064   0.667   7.406  0.00  0.00    +0.018 A 
ATOM      5  C   UNL     1       0.086  -0.703   7.219  0.00  0.00    +0.020 A 
ATOM      6  C   UNL     1       0.075  -1.227   5.940  0.00  0.00    -0.022 A 
ATOM      7 BR   UNL     1       0.071   1.380   9.158  0.00  0.00    -0.050 Br
ENDROOT
BRANCH   1   8
ATOM      8  O   UNL     1       0.048  -0.889   3.585  0.00  0.00    -0.487 OA
BRANCH   8   9
ATOM      9  C   UNL     1       0.025   0.045   2.504  0.00  0.00    +0.264 C 
BRANCH   9  16
ATOM     10  C   UNL     1      -0.018   1.503   0.010  0.00  0.00    +0.044 C 
ATOM     11  C   UNL     1       0.002  -0.004   0.002  0.00  0.00    -0.044 A 
ATOM     12  C   UNL     1       0.006  -0.689  -1.199  0.00  0.00    +0.004 A 
ATOM     13  C   UNL     1       0.025  -2.071  -1.207  0.00  0.00    +0.000 A 
ATOM     14  C   UNL     1       0.040  -2.768  -0.013  0.00  0.00    +0.000 A 
ATOM     15  C   UNL     1       0.037  -2.084   1.188  0.00  0.00    +0.007 A 
ATOM     16  C   UNL     1       0.023  -0.702   1.195  0.00  0.00    -0.007 A 
ENDBRANCH   9  16
ENDBRANCH   8   9
ENDBRANCH   1   8
BRANCH   6  17
ATOM     17  C   UNL     1       0.093  -2.720   5.736  0.00  0.00    -0.043 C 
BRANCH  17  18
ATOM     18  N   UNL     1       1.460  -3.154   5.418  0.00  0.00    +0.384 N 
ATOM     19  H   UNL     1       1.771  -2.696   4.575  0.00  0.00    -0.085 HD
ATOM     20  H   UNL     1       2.075  -2.912   6.180  0.00  0.00    -0.085 HD
BRANCH  18  21
ATOM     21  C   UNL     1       1.477  -4.610   5.220  0.00  0.00    -0.065 C 
ATOM     22  C   UNL     1       1.125  -5.308   6.535  0.00  0.00    -0.024 C 
ATOM     23  C   UNL     1       1.143  -6.824   6.328  0.00  0.00    +0.005 C 
ATOM     24  C   UNL     1       2.538  -7.261   5.875  0.00  0.00    -0.010 C 
ATOM     25  C   UNL     1       3.564  -6.880   6.945  0.00  0.00    +0.007 C 
ATOM     26  C   UNL     1       3.546  -5.364   7.152  0.00  0.00    -0.010 C 
ATOM     27  C   UNL     1       2.151  -4.927   7.604  0.00  0.00    +0.005 C 
ATOM     28  C   UNL     1       3.897  -4.665   5.837  0.00  0.00    +0.005 C 
ATOM     29  C   UNL     1       2.872  -5.046   4.767  0.00  0.00    -0.024 C 
ATOM     30  C   UNL     1       2.890  -6.562   4.560  0.00  0.00    +0.005 C 
ENDBRANCH  18  21
ENDBRANCH  17  18
ENDBRANCH   6  17
TORSDOF 6
