REMARK  Name = ZINC11726669
REMARK  10 active torsions:
REMARK  status: ('A' for Active; 'I' for Inactive)
REMARK    1  A    between atoms: C_1  and  C_2
REMARK    2  A    between atoms: C_2  and  S_3
REMARK    3  A    between atoms: S_3  and  C_4
REMARK    4  A    between atoms: C_10  and  C_12
REMARK    5  A    between atoms: C_12  and  S_13
REMARK    6  A    between atoms: S_13  and  C_14
REMARK    7  A    between atoms: N_20  and  C_21
REMARK    8  A    between atoms: C_23  and  C_28
REMARK    9  A    between atoms: C_25  and  C_27
REMARK   10  A    between atoms: C_30  and  C_33
REMARK                            x       y       z     vdW  Elec       q    Type
REMARK                         _______ _______ _______ _____ _____    ______ ____
ROOT
ATOM      1  C   UNL     1       5.312   0.990   0.453  0.00  0.00    +0.177 A 
ATOM      2  N   UNL     1       5.101  -0.303   0.467  0.00  0.00    -0.227 NA
ATOM      3  C   UNL     1       5.993  -1.189  -0.025  0.00  0.00    +0.064 A 
ATOM      4  C   UNL     1       7.154  -0.672  -0.562  0.00  0.00    +0.094 A 
ATOM      5  C   UNL     1       7.398   0.709  -0.568  0.00  0.00    +0.273 A 
ATOM      6  O   UNL     1       8.435   1.157  -1.030  0.00  0.00    -0.266 OA
ATOM      7  N   UNL     1       6.458   1.533  -0.051  0.00  0.00    -0.255 N 
ATOM      8  S   UNL     1       8.096  -2.051  -1.170  0.00  0.00    -0.115 S 
ATOM      9  C   UNL     1       6.784  -3.340  -1.092  0.00  0.00    +0.054 C 
ATOM     10  C   UNL     1       5.855  -2.692  -0.040  0.00  0.00    +0.071 C 
ATOM     11  C   UNL     1       7.341  -4.676  -0.598  0.00  0.00    +0.020 C 
ENDROOT
BRANCH   7  12
ATOM     12  C   UNL     1       6.659   2.920  -0.033  0.00  0.00    +0.052 A 
ATOM     13  C   UNL     1       7.270   3.520   1.059  0.00  0.00    +0.029 A 
ATOM     14  C   UNL     1       7.470   4.886   1.072  0.00  0.00    -0.048 A 
ATOM     15  C   UNL     1       7.053   5.658   0.003  0.00  0.00    +0.006 A 
ATOM     16  C   UNL     1       6.439   5.063  -1.084  0.00  0.00    -0.048 A 
ATOM     17  C   UNL     1       6.241   3.697  -1.105  0.00  0.00    +0.029 A 
ATOM     18  C   UNL     1       5.986   5.908  -2.248  0.00  0.00    +0.044 C 
ATOM     19  C   UNL     1       8.139   5.538   2.255  0.00  0.00    +0.044 C 
ENDBRANCH   7  12
BRANCH   1  20
ATOM     20  S   UNL     1       4.080   2.062   1.113  0.00  0.00    -0.078 S 
BRANCH  20  21
ATOM     21  C   UNL     1       2.839   0.844   1.615  0.00  0.00    +0.173 C 
BRANCH  21  28
ATOM     22  C   UNL     1      -2.731   2.410   4.346  0.00  0.00    +0.160 A 
ATOM     23  N   UNL     1      -1.762   3.223   3.951  0.00  0.00    -0.133 NA
ATOM     24  N   UNL     1      -0.699   2.789   3.429  0.00  0.00    -0.125 NA
ATOM     25  C   UNL     1      -0.491   1.498   3.233  0.00  0.00    +0.189 A 
ATOM     26  S   UNL     1      -2.014   0.832   3.898  0.00  0.00    -0.024 S 
ATOM     27  N   UNL     1       0.604   0.842   2.674  0.00  0.00    -0.263 N 
ATOM     28  C   UNL     1       1.658   1.553   2.225  0.00  0.00    +0.229 C 
ATOM     29  O   UNL     1       1.655   2.763   2.313  0.00  0.00    -0.275 OA
ATOM     30  H   UNL     1       0.606  -0.125   2.604  0.00  0.00    +0.157 HD
BRANCH  22  31
ATOM     31  S   UNL     1      -4.281   2.777   5.099  0.00  0.00    -0.097 S 
BRANCH  31  33
ATOM     32  C   UNL     1      -5.596   5.046   5.876  0.00  0.00    +0.016 C 
ATOM     33  C   UNL     1      -4.288   4.587   5.231  0.00  0.00    +0.073 C 
ENDBRANCH  31  33
ENDBRANCH  22  31
ENDBRANCH  21  28
ENDBRANCH  20  21
ENDBRANCH   1  20
TORSDOF 6
