REMARK  Name = ZINC08845211
REMARK  12 active torsions:
REMARK  status: ('A' for Active; 'I' for Inactive)
REMARK    1  A    between atoms: C_1  and  C_2
REMARK    2  A    between atoms: C_2  and  O_3
REMARK    3  A    between atoms: O_3  and  C_4
REMARK    4  A    between atoms: C_7  and  C_10
REMARK    5  A    between atoms: C_13  and  C_31
REMARK    6  A    between atoms: N_20  and  C_21
REMARK    7  A    between atoms: C_21  and  C_22
REMARK    8  A    between atoms: C_22  and  C_23
REMARK    9  A    between atoms: C_26  and  O_29
REMARK   10  A    between atoms: O_29  and  C_30
REMARK   11  A    between atoms: C_34  and  C_38
REMARK   12  A    between atoms: C_36  and  O_37
REMARK                            x       y       z     vdW  Elec       q    Type
REMARK                         _______ _______ _______ _____ _____    ______ ____
ROOT
ATOM      1  C   UNL     1      -2.022  -6.051  -0.018  0.00  0.00    +0.141 C 
ATOM      2  C   UNL     1      -2.495  -6.533  -1.362  0.00  0.00    +0.035 A 
ATOM      3  C   UNL     1      -2.242  -6.635  -2.734  0.00  0.00    +0.102 A 
ATOM      4  N   UNL     1      -3.264  -7.268  -3.277  0.00  0.00    -0.173 NA
ATOM      5  N   UNL     1      -4.136  -7.575  -2.385  0.00  0.00    -0.272 N 
ATOM      6  H   UNL     1      -4.968  -8.043  -2.556  0.00  0.00    +0.189 HD
ATOM      7  C   UNL     1      -3.718  -7.143  -1.158  0.00  0.00    +0.126 A 
ATOM      8  C   UNL     1      -4.043  -7.069   0.271  0.00  0.00    +0.265 C 
ATOM      9  O   UNL     1      -5.055  -7.516   0.776  0.00  0.00    -0.268 OA
ATOM     10  N   UNL     1      -3.063  -6.437   0.944  0.00  0.00    -0.285 N 
ENDROOT
BRANCH   3  11
ATOM     11  C   UNL     1      -1.045  -6.125  -3.447  0.00  0.00    +0.045 A 
ATOM     12  C   UNL     1       0.021  -5.588  -2.729  0.00  0.00    +0.034 A 
ATOM     13  C   UNL     1       1.133  -5.115  -3.397  0.00  0.00    +0.045 A 
ATOM     14  C   UNL     1       1.192  -5.171  -4.779  0.00  0.00    -0.029 A 
ATOM     15  C   UNL     1       0.139  -5.701  -5.501  0.00  0.00    +0.050 A 
ATOM     16  C   UNL     1      -0.980  -6.186  -4.842  0.00  0.00    +0.126 A 
ATOM     17  C   UNL     1       2.409  -4.652  -5.501  0.00  0.00    +0.045 C 
ATOM     18 CL   UNL     1       2.461  -4.446  -2.501  0.00  0.00    -0.083 Cl
BRANCH  16  19
ATOM     19  O   UNL     1      -2.013  -6.713  -5.550  0.00  0.00    -0.506 OA
ATOM     20  H   UNL     1      -2.684  -6.065  -5.807  0.00  0.00    +0.292 HD
ENDBRANCH  16  19
ENDBRANCH   3  11
BRANCH   1  24
ATOM     21  C   UNL     1      -1.555  -1.804  -0.058  0.00  0.00    +0.121 A 
ATOM     22  C   UNL     1      -0.443  -2.624   0.067  0.00  0.00    +0.046 A 
ATOM     23  C   UNL     1      -0.597  -3.997   0.080  0.00  0.00    +0.009 A 
ATOM     24  C   UNL     1      -1.857  -4.553  -0.032  0.00  0.00    -0.022 A 
ATOM     25  C   UNL     1      -2.967  -3.738  -0.156  0.00  0.00    +0.009 A 
ATOM     26  C   UNL     1      -2.820  -2.365  -0.163  0.00  0.00    +0.046 A 
BRANCH  21  27
ATOM     27  O   UNL     1      -1.407  -0.453  -0.070  0.00  0.00    -0.492 OA
BRANCH  27  29
ATOM     28  C   UNL     1      -0.109   1.584   0.010  0.00  0.00    +0.048 C 
ATOM     29  C   UNL     1      -0.076   0.055   0.043  0.00  0.00    +0.225 C 
ENDBRANCH  27  29
ENDBRANCH  21  27
ENDBRANCH   1  24
BRANCH  10  30
ATOM     30  C   UNL     1      -3.039  -6.177   2.385  0.00  0.00    +0.114 C 
BRANCH  30  31
ATOM     31  C   UNL     1      -3.696  -4.825   2.671  0.00  0.00    +0.054 C 
BRANCH  31  32
ATOM     32  C   UNL     1      -3.671  -4.559   4.154  0.00  0.00    -0.046 A 
ATOM     33  C   UNL     1      -4.720  -4.982   4.950  0.00  0.00    +0.007 A 
ATOM     34  C   UNL     1      -4.700  -4.739   6.309  0.00  0.00    +0.046 A 
ATOM     35  C   UNL     1      -3.626  -4.068   6.877  0.00  0.00    +0.120 A 
ATOM     36  C   UNL     1      -2.575  -3.644   6.076  0.00  0.00    +0.046 A 
ATOM     37  C   UNL     1      -2.597  -3.895   4.718  0.00  0.00    +0.007 A 
BRANCH  35  38
ATOM     38  O   UNL     1      -3.604  -3.827   8.214  0.00  0.00    -0.495 OA
ATOM     39  C   UNL     1      -2.466  -3.131   8.729  0.00  0.00    +0.277 C 
ENDBRANCH  35  38
ENDBRANCH  31  32
ENDBRANCH  30  31
ENDBRANCH  10  30
TORSDOF 9
