REMARK  Name = ZINC59875506
REMARK  7 active torsions:
REMARK  status: ('A' for Active; 'I' for Inactive)
REMARK    1  A    between atoms: C_9  and  C_18
REMARK    2  A    between atoms: C_18  and  N_19
REMARK    3  A    between atoms: C_20  and  C_22
REMARK    4  A    between atoms: C_22  and  C_23
REMARK    5  A    between atoms: C_23  and  C_24
REMARK    6  A    between atoms: C_24  and  C_25
REMARK    7  A    between atoms: C_25  and  C_26
REMARK                            x       y       z     vdW  Elec       q    Type
REMARK                         _______ _______ _______ _____ _____    ______ ____
ROOT
ATOM      1  N   UNL     1       3.679  -1.655   3.656  0.00  0.00    -0.315 N 
ATOM      2  C   UNL     1       3.740  -1.096   4.881  0.00  0.00    +0.213 C 
ATOM      3  O   UNL     1       3.742   0.111   4.998  0.00  0.00    -0.276 OA
ATOM      4  H   UNL     1       3.678  -2.620   3.563  0.00  0.00    +0.149 HD
ENDROOT
BRANCH   1   5
ATOM      5  C   UNL     1       3.613  -0.803   2.466  0.00  0.00    +0.108 C 
BRANCH   5  14
ATOM      6  C   UNL     1      -0.017   1.385   0.010  0.00  0.00    +0.000 A 
ATOM      7  C   UNL     1       1.165   2.102   0.002  0.00  0.00    +0.000 A 
ATOM      8  C   UNL     1       2.388   1.442  -0.013  0.00  0.00    +0.004 A 
ATOM      9  C   UNL     1       2.399   0.077  -0.021  0.00  0.00    -0.036 A 
ATOM     10  C   UNL     1       1.207  -0.646  -0.013  0.00  0.00    -0.036 A 
ATOM     11  C   UNL     1       0.002  -0.004   0.002  0.00  0.00    +0.004 A 
ATOM     12  C   UNL     1       1.389  -2.155  -0.024  0.00  0.00    +0.050 C 
ATOM     13  C   UNL     1       2.245  -2.473   1.222  0.00  0.00    +0.018 C 
ATOM     14  C   UNL     1       3.551  -1.681   1.214  0.00  0.00    +0.019 C 
ATOM     15  C   UNL     1       3.654  -0.782  -0.039  0.00  0.00    +0.054 C 
ATOM     16  C   UNL     1       3.480  -1.720  -1.223  0.00  0.00    -0.036 A 
ATOM     17  C   UNL     1       2.289  -2.442  -1.215  0.00  0.00    -0.036 A 
ATOM     18  C   UNL     1       1.999  -3.322  -2.218  0.00  0.00    +0.004 A 
ATOM     19  C   UNL     1       2.915  -3.486  -3.250  0.00  0.00    +0.000 A 
ATOM     20  C   UNL     1       4.097  -2.770  -3.257  0.00  0.00    +0.000 A 
ATOM     21  C   UNL     1       4.385  -1.876  -2.234  0.00  0.00    +0.004 A 
ENDBRANCH   5  14
ENDBRANCH   1   5
BRANCH   2  22
ATOM     22  C   UNL     1       3.808  -1.972   6.106  0.00  0.00    +0.096 C 
BRANCH  22  23
ATOM     23  C   UNL     1       3.870  -1.094   7.357  0.00  0.00    +0.009 C 
BRANCH  23  24
ATOM     24  C   UNL     1       3.939  -1.983   8.601  0.00  0.00    +0.002 C 
BRANCH  24  25
ATOM     25  C   UNL     1       4.000  -1.105   9.853  0.00  0.00    +0.016 C 
BRANCH  25  26
ATOM     26  C   UNL     1       4.069  -1.994  11.096  0.00  0.00    +0.069 C 
ATOM     27  C   UNL     1       4.176  -1.143  12.380  0.00  0.00    +0.108 C 
ATOM     28  C   UNL     1       3.342  -1.682  13.546  0.00  0.00    +0.105 C 
ATOM     29  C   UNL     1       2.551  -2.963  13.203  0.00  0.00    +0.093 C 
ATOM     30  S   UNL     1       2.470  -2.872  11.372  0.00  0.00    -0.154 S 
ATOM     31  N   UNL     1       2.387  -0.599  13.832  0.00  0.00    -0.294 N 
ATOM     32  C   UNL     1       2.610   0.414  12.984  0.00  0.00    +0.300 C 
ATOM     33  O   UNL     1       1.963   1.444  12.996  0.00  0.00    -0.253 OA
ATOM     34  N   UNL     1       3.602   0.187  12.125  0.00  0.00    -0.294 N 
ATOM     35  H   UNL     1       1.706  -0.617  14.523  0.00  0.00    +0.151 HD
ATOM     36  H   UNL     1       3.898   0.807  11.440  0.00  0.00    +0.151 HD
ENDBRANCH  25  26
ENDBRANCH  24  25
ENDBRANCH  23  24
ENDBRANCH  22  23
ENDBRANCH   2  22
TORSDOF 7
