REMARK  Name = ZINC22927272
REMARK  10 active torsions:
REMARK  status: ('A' for Active; 'I' for Inactive)
REMARK    1  A    between atoms: C_1  and  C_2
REMARK    2  A    between atoms: C_5  and  C_8
REMARK    3  A    between atoms: N_10  and  C_23
REMARK    4  A    between atoms: N_13  and  C_14
REMARK    5  A    between atoms: C_19  and  C_20
REMARK    6  A    between atoms: C_20  and  C_21
REMARK    7  A    between atoms: C_20  and  C_22
REMARK    8  A    between atoms: C_23  and  N_24
REMARK    9  A    between atoms: N_27  and  C_30
REMARK   10  A    between atoms: C_30  and  C_31
REMARK                            x       y       z     vdW  Elec       q    Type
REMARK                         _______ _______ _______ _____ _____    ______ ____
ROOT
ATOM      1  C   UNL     1       2.087   0.736  -0.014  0.00  0.00    +0.167 A 
ATOM      2  N   UNL     1       1.314   1.785  -0.001  0.00  0.00    -0.152 NA
ATOM      3  N   UNL     1      -0.016   1.345   0.009  0.00  0.00    -0.257 N 
ATOM      4  C   UNL     1       0.002  -0.004   0.002  0.00  0.00    +0.181 A 
ATOM      5  S   UNL     1      -1.366  -1.033   0.010  0.00  0.00    -0.011 S 
ATOM      6  N   UNL     1       1.292  -0.395  -0.012  0.00  0.00    -0.271 N 
ENDROOT
BRANCH   1  11
ATOM      7  C   UNL     1       7.842   0.799  -0.069  0.00  0.00    +0.044 C 
ATOM      8  C   UNL     1       6.335   0.782  -0.054  0.00  0.00    -0.050 A 
ATOM      9  C   UNL     1       5.631   1.935  -0.352  0.00  0.00    +0.004 A 
ATOM     10  C   UNL     1       4.251   1.927  -0.341  0.00  0.00    +0.012 A 
ATOM     11  C   UNL     1       3.567   0.752  -0.028  0.00  0.00    +0.020 A 
ATOM     12  C   UNL     1       4.283  -0.406   0.277  0.00  0.00    +0.012 A 
ATOM     13  C   UNL     1       5.662  -0.386   0.257  0.00  0.00    +0.004 A 
ENDBRANCH   1  11
BRANCH   6  14
ATOM     14  C   UNL     1       1.748  -1.720  -0.025  0.00  0.00    +0.054 A 
ATOM     15  C   UNL     1       1.963  -2.371  -1.232  0.00  0.00    +0.026 A 
ATOM     16  C   UNL     1       2.413  -3.676  -1.241  0.00  0.00    +0.002 A 
ATOM     17  C   UNL     1       2.650  -4.335  -0.049  0.00  0.00    +0.000 A 
ATOM     18  C   UNL     1       2.437  -3.690   1.155  0.00  0.00    +0.006 A 
ATOM     19  C   UNL     1       1.992  -2.382   1.171  0.00  0.00    -0.021 A 
BRANCH  19  20
ATOM     20  C   UNL     1       1.765  -1.678   2.484  0.00  0.00    +0.015 C 
ATOM     21  C   UNL     1       0.717  -2.439   3.297  0.00  0.00    +0.012 C 
ATOM     22  C   UNL     1       3.079  -1.625   3.267  0.00  0.00    +0.012 C 
ENDBRANCH  19  20
ENDBRANCH   6  14
BRANCH   3  23
ATOM     23  C   UNL     1      -1.210   2.194   0.020  0.00  0.00    +0.072 C 
BRANCH  23  24
ATOM     24  N   UNL     1      -1.602   2.471   1.408  0.00  0.00    +0.394 N 
ATOM     25  C   UNL     1      -2.044   1.244   2.085  0.00  0.00    -0.061 C 
ATOM     26  C   UNL     1      -2.367   1.559   3.547  0.00  0.00    +0.066 C 
ATOM     27  N   UNL     1      -3.409   2.593   3.604  0.00  0.00    -0.302 NA
ATOM     28  C   UNL     1      -2.967   3.820   2.928  0.00  0.00    +0.066 C 
ATOM     29  C   UNL     1      -2.644   3.505   1.465  0.00  0.00    -0.061 C 
ATOM     30  H   UNL     1      -0.716   2.851   1.939  0.00  0.00    -0.079 HD
BRANCH  27  31
ATOM     31  C   UNL     1      -3.801   2.869   4.993  0.00  0.00    +0.119 C 
BRANCH  31  32
ATOM     32  C   UNL     1      -4.012   1.569   5.724  0.00  0.00    -0.033 A 
ATOM     33  C   UNL     1      -5.262   0.978   5.738  0.00  0.00    +0.005 A 
ATOM     34  C   UNL     1      -5.454  -0.218   6.404  0.00  0.00    +0.000 A 
ATOM     35  C   UNL     1      -4.398  -0.818   7.065  0.00  0.00    +0.000 A 
ATOM     36  C   UNL     1      -3.150  -0.224   7.056  0.00  0.00    +0.000 A 
ATOM     37  C   UNL     1      -2.957   0.969   6.385  0.00  0.00    +0.005 A 
ENDBRANCH  31  32
ENDBRANCH  27  31
ENDBRANCH  23  24
ENDBRANCH   3  23
TORSDOF 7
