REMARK  Name = ZINC04082203
REMARK  2 active torsions:
REMARK  status: ('A' for Active; 'I' for Inactive)
REMARK    1  A    between atoms: C_4  and  C_7
REMARK    2  A    between atoms: C_12  and  C_22
REMARK                            x       y       z     vdW  Elec       q    Type
REMARK                         _______ _______ _______ _____ _____    ______ ____
ROOT
ATOM      1  C   UNL     1      -4.087   5.070  -3.787  0.00  0.00    +0.032 C 
ATOM      2  C   UNL     1      -4.395   3.619  -3.421  0.00  0.00    +0.059 C 
ATOM      3  C   UNL     1      -4.059   3.371  -1.959  0.00  0.00    +0.017 C 
ATOM      4  C   UNL     1      -3.037   4.015  -1.379  0.00  0.00    +0.036 C 
ATOM      5  C   UNL     1      -2.569   3.842   0.047  0.00  0.00    +0.136 C 
ATOM      6  N   UNL     1      -3.477   3.089   0.885  0.00  0.00    -0.331 N 
ATOM      7  C   UNL     1      -3.747   1.745   0.629  0.00  0.00    +0.049 A 
ATOM      8  C   UNL     1      -3.373   0.750   1.518  0.00  0.00    +0.025 A 
ATOM      9  C   UNL     1      -3.621  -0.574   1.201  0.00  0.00    +0.002 A 
ATOM     10  C   UNL     1      -4.234  -0.904   0.005  0.00  0.00    +0.002 A 
ATOM     11  C   UNL     1      -4.624   0.089  -0.877  0.00  0.00    +0.025 A 
ATOM     12  C   UNL     1      -4.395   1.414  -0.551  0.00  0.00    +0.052 A 
ATOM     13  N   UNL     1      -4.855   2.462  -1.341  0.00  0.00    -0.316 N 
ATOM     14  C   UNL     1      -2.284   4.967  -2.113  0.00  0.00    +0.163 C 
ATOM     15  O   UNL     1      -1.355   5.528  -1.565  0.00  0.00    -0.292 OA
ATOM     16  C   UNL     1      -2.593   5.306  -3.540  0.00  0.00    +0.088 C 
ATOM     17  H   UNL     1      -3.906   3.526   1.637  0.00  0.00    +0.147 HD
ATOM     18  H   UNL     1      -5.814   2.550  -1.458  0.00  0.00    +0.152 HD
ENDROOT
BRANCH   5  19
ATOM     19  C   UNL     1      -1.237   3.137   0.031  0.00  0.00    -0.022 A 
ATOM     20  C   UNL     1      -0.102   3.802   0.490  0.00  0.00    +0.006 A 
ATOM     21  C   UNL     1       1.117   3.196   0.484  0.00  0.00    +0.009 A 
ATOM     22  C   UNL     1       1.234   1.876   0.018  0.00  0.00    -0.018 A 
ATOM     23  C   UNL     1       2.474   1.215   0.001  0.00  0.00    +0.008 A 
ATOM     24  C   UNL     1       2.549  -0.065  -0.457  0.00  0.00    +0.001 A 
ATOM     25  C   UNL     1       1.413  -0.732  -0.911  0.00  0.00    +0.001 A 
ATOM     26  C   UNL     1       0.196  -0.124  -0.910  0.00  0.00    +0.008 A 
ATOM     27  C   UNL     1       0.079   1.197  -0.444  0.00  0.00    -0.018 A 
ATOM     28  C   UNL     1      -1.162   1.858  -0.427  0.00  0.00    +0.014 A 
ENDBRANCH   5  19
BRANCH   1  32
ATOM     29  C   UNL     1      -5.000   5.749  -7.904  0.00  0.00    +0.000 A 
ATOM     30  C   UNL     1      -5.644   6.480  -6.924  0.00  0.00    +0.000 A 
ATOM     31  C   UNL     1      -5.349   6.260  -5.591  0.00  0.00    +0.004 A 
ATOM     32  C   UNL     1      -4.409   5.309  -5.239  0.00  0.00    -0.044 A 
ATOM     33  C   UNL     1      -3.760   4.583  -6.220  0.00  0.00    +0.004 A 
ATOM     34  C   UNL     1      -4.059   4.799  -7.552  0.00  0.00    +0.000 A 
ENDBRANCH   1  32
TORSDOF 2
