REMARK  Name = ZINC08312557
REMARK  3 active torsions:
REMARK  status: ('A' for Active; 'I' for Inactive)
REMARK    1  A    between atoms: C_1  and  N_2
REMARK    2  A    between atoms: N_6  and  S_17
REMARK    3  A    between atoms: S_17  and  C_20
REMARK                            x       y       z     vdW  Elec       q    Type
REMARK                         _______ _______ _______ _____ _____    ______ ____
ROOT
ATOM      1  C   UNL     1      -0.018   1.461   0.010  0.00  0.00    +0.131 C 
ATOM      2  N   UNL     1       0.002  -0.004   0.002  0.00  0.00    -0.315 N 
ATOM      3  C   UNL     1      -1.248  -0.769   0.004  0.00  0.00    +0.108 C 
ATOM      4  C   UNL     1      -1.623  -1.191   1.414  0.00  0.00    +0.040 C 
ATOM      5  C   UNL     1      -0.626  -2.167   2.016  0.00  0.00    +0.135 C 
ATOM      6  N   UNL     1       0.681  -1.531   2.201  0.00  0.00    -0.183 N 
ATOM      7  C   UNL     1       1.557  -1.481   1.120  0.00  0.00    +0.182 A 
ATOM      8  C   UNL     1       1.209  -0.699  -0.013  0.00  0.00    +0.164 A 
ATOM      9  N   UNL     1       2.006  -0.629  -1.056  0.00  0.00    -0.227 NA
ATOM     10  C   UNL     1       3.164  -1.309  -1.050  0.00  0.00    +0.091 A 
ATOM     11  C   UNL     1       4.033  -1.257  -2.152  0.00  0.00    +0.030 A 
ATOM     12  C   UNL     1       5.203  -1.954  -2.124  0.00  0.00    +0.002 A 
ATOM     13  C   UNL     1       5.552  -2.721  -1.015  0.00  0.00    +0.002 A 
ATOM     14  C   UNL     1       4.732  -2.795   0.070  0.00  0.00    +0.030 A 
ATOM     15  C   UNL     1       3.518  -2.090   0.076  0.00  0.00    +0.091 A 
ATOM     16  N   UNL     1       2.688  -2.150   1.147  0.00  0.00    -0.226 NA
ENDROOT
BRANCH   6  17
ATOM     17  S   UNL     1       1.107  -0.884   3.665  0.00  0.00    +0.076 S 
ATOM     18  O   UNL     1       2.099   0.098   3.402  0.00  0.00    -0.150 OA
ATOM     19  O   UNL     1      -0.105  -0.581   4.343  0.00  0.00    -0.150 OA
BRANCH  17  20
ATOM     20  C   UNL     1       1.895  -2.161   4.589  0.00  0.00    +0.109 A 
ATOM     21  C   UNL     1       1.144  -2.992   5.399  0.00  0.00    +0.029 A 
ATOM     22  C   UNL     1       1.762  -3.994   6.124  0.00  0.00    +0.002 A 
ATOM     23  C   UNL     1       3.132  -4.165   6.038  0.00  0.00    +0.000 A 
ATOM     24  C   UNL     1       3.882  -3.334   5.227  0.00  0.00    +0.002 A 
ATOM     25  C   UNL     1       3.263  -2.335   4.499  0.00  0.00    +0.029 A 
ENDBRANCH  17  20
ENDBRANCH   6  17
TORSDOF 2
