REMARK  Name = ZINC15947044
REMARK  10 active torsions:
REMARK  status: ('A' for Active; 'I' for Inactive)
REMARK    1  A    between atoms: C_1  and  C_2
REMARK    2  A    between atoms: C_2  and  C_3
REMARK    3  A    between atoms: C_2  and  N_4
REMARK    4  A    between atoms: C_12  and  O_35
REMARK    5  A    between atoms: C_14  and  C_17
REMARK    6  A    between atoms: C_20  and  O_25
REMARK    7  A    between atoms: C_21  and  O_23
REMARK    8  A    between atoms: O_23  and  C_24
REMARK    9  A    between atoms: O_25  and  C_26
REMARK   10  A    between atoms: C_26  and  C_28
REMARK                            x       y       z     vdW  Elec       q    Type
REMARK                         _______ _______ _______ _____ _____    ______ ____
ROOT
ATOM      1  N   UNL     1      -1.211  -1.309   0.905  0.00  0.00    +0.384 N 
ATOM      2  C   UNL     1      -1.543  -2.738   0.987  0.00  0.00    -0.073 C 
ATOM      3  C   UNL     1      -2.972  -2.919   1.508  0.00  0.00    +0.018 C 
ATOM      4  C   UNL     1      -3.895  -2.060   0.654  0.00  0.00    -0.027 A 
ATOM      5  C   UNL     1      -3.380  -1.069  -0.113  0.00  0.00    -0.021 A 
ATOM      6  S   UNL     1      -4.782  -0.350  -0.919  0.00  0.00    -0.080 S 
ATOM      7  C   UNL     1      -5.982  -1.302  -0.283  0.00  0.00    +0.080 A 
ATOM      8  C   UNL     1      -5.335  -2.200   0.575  0.00  0.00    +0.067 A 
ATOM      9  C   UNL     1      -6.180  -3.180   1.304  0.00  0.00    +0.220 C 
ATOM     10  N   UNL     1      -7.421  -3.313   0.922  0.00  0.00    -0.223 NA
ATOM     11  C   UNL     1      -8.016  -2.615  -0.211  0.00  0.00    +0.224 C 
ATOM     12  N   UNL     1      -7.346  -1.327  -0.468  0.00  0.00    -0.313 N 
ATOM     13  C   UNL     1      -1.936  -0.696  -0.223  0.00  0.00    -0.035 C 
ATOM     14  H   UNL     1      -7.839  -0.541  -0.752  0.00  0.00    +0.149 HD
ATOM     15  H   UNL     1      -1.478  -0.853   1.764  0.00  0.00    -0.081 HD
ENDROOT
BRANCH  11  16
ATOM     16  C   UNL     1      -7.901  -3.482  -1.438  0.00  0.00    -0.002 A 
ATOM     17  C   UNL     1      -7.788  -2.898  -2.687  0.00  0.00    +0.011 A 
ATOM     18  C   UNL     1      -7.682  -3.688  -3.816  0.00  0.00    +0.050 A 
ATOM     19  C   UNL     1      -7.689  -5.069  -3.698  0.00  0.00    +0.173 A 
ATOM     20  C   UNL     1      -7.803  -5.657  -2.442  0.00  0.00    +0.163 A 
ATOM     21  C   UNL     1      -7.904  -4.858  -1.313  0.00  0.00    +0.056 A 
BRANCH  20  22
ATOM     22  O   UNL     1      -7.811  -7.011  -2.321  0.00  0.00    -0.491 OA
ATOM     23  C   UNL     1      -7.930  -7.544  -1.000  0.00  0.00    +0.277 C 
ENDBRANCH  20  22
BRANCH  19  24
ATOM     24  O   UNL     1      -7.586  -5.848  -4.808  0.00  0.00    -0.419 OA
BRANCH  24  25
ATOM     25  C   UNL     1      -8.715  -6.379  -5.315  0.00  0.00    +0.345 C 
ATOM     26  O   UNL     1      -9.772  -6.227  -4.736  0.00  0.00    -0.245 OA
BRANCH  25  27
ATOM     27  C   UNL     1      -8.668  -7.146  -6.576  0.00  0.00    +0.059 A 
ATOM     28  C   UNL     1      -7.454  -7.328  -7.242  0.00  0.00    +0.016 A 
ATOM     29  C   UNL     1      -7.417  -8.045  -8.419  0.00  0.00    +0.021 A 
ATOM     30  C   UNL     1      -8.581  -8.585  -8.941  0.00  0.00    +0.041 A 
ATOM     31  C   UNL     1      -9.788  -8.408  -8.286  0.00  0.00    +0.021 A 
ATOM     32  C   UNL     1      -9.837  -7.698  -7.105  0.00  0.00    +0.016 A 
ATOM     33 CL   UNL     1      -8.526  -9.486 -10.424  0.00  0.00    -0.084 Cl
ENDBRANCH  25  27
ENDBRANCH  24  25
ENDBRANCH  19  24
ENDBRANCH  11  16
BRANCH   1  35
ATOM     34  C   UNL     1       0.562   0.323   0.469  0.00  0.00    -0.014 C 
ATOM     35  C   UNL     1       0.235  -1.154   0.699  0.00  0.00    -0.074 C 
ATOM     36  C   UNL     1       0.984  -1.656   1.936  0.00  0.00    -0.014 C 
ENDBRANCH   1  35
BRANCH   9  37
ATOM     37  O   UNL     1      -5.682  -3.908   2.330  0.00  0.00    -0.492 OA
ATOM     38  H   UNL     1      -6.321  -4.513   2.730  0.00  0.00    +0.294 HD
ENDBRANCH   9  37
TORSDOF 7
