REMARK  Name = ZINC63296373
REMARK  4 active torsions:
REMARK  status: ('A' for Active; 'I' for Inactive)
REMARK    1  A    between atoms: N_17  and  C_18
REMARK    2  A    between atoms: C_18  and  C_19
REMARK    3  A    between atoms: C_19  and  C_20
REMARK    4  A    between atoms: N_25  and  C_28
REMARK                            x       y       z     vdW  Elec       q    Type
REMARK                         _______ _______ _______ _____ _____    ______ ____
ROOT
ATOM      1  C   UNL     1       0.004   1.332   0.136  0.00  0.00    +0.001 A 
ATOM      2  C   UNL     1       1.186   2.085   0.128  0.00  0.00    +0.002 A 
ATOM      3  C   UNL     1       2.410   1.518   0.101  0.00  0.00    +0.026 A 
ATOM      4  C   UNL     1       2.549   0.103   0.080  0.00  0.00    +0.043 A 
ATOM      5  N   UNL     1       3.611  -0.669   0.032  0.00  0.00    -0.376 N 
ATOM      6  C   UNL     1       3.175  -2.062   0.108  0.00  0.00    +0.124 C 
ATOM      7  C   UNL     1       3.662  -2.879  -1.094  0.00  0.00    +0.138 C 
ATOM      8  N   UNL     1       2.866  -4.115  -1.151  0.00  0.00    -0.283 N 
ATOM      9  C   UNL     1       1.408  -4.058  -1.300  0.00  0.00    +0.114 C 
ATOM     10  C   UNL     1       0.808  -3.250  -0.135  0.00  0.00    +0.052 C 
ATOM     11  C   UNL     1       1.658  -2.013   0.048  0.00  0.00    -0.036 C 
ATOM     12  C   UNL     1       1.314  -0.718   0.081  0.00  0.00    -0.001 A 
ATOM     13  C   UNL     1       0.022  -0.020   0.115  0.00  0.00    +0.010 A 
ATOM     14  C   UNL     1       3.482  -5.311  -1.067  0.00  0.00    +0.302 C 
ATOM     15  O   UNL     1       4.696  -5.368  -1.041  0.00  0.00    -0.253 OA
ATOM     16  N   UNL     1       2.753  -6.442  -1.010  0.00  0.00    -0.299 N 
ATOM     17  H   UNL     1       1.788  -6.403  -1.105  0.00  0.00    +0.150 HD
ATOM     18  H   UNL     1       4.529  -0.366  -0.041  0.00  0.00    +0.160 HD
ENDROOT
BRANCH  16  19
ATOM     19  C   UNL     1       3.416  -7.732  -0.806  0.00  0.00    +0.115 C 
BRANCH  19  20
ATOM     20  C   UNL     1       2.368  -8.847  -0.782  0.00  0.00    +0.114 C 
BRANCH  20  21
ATOM     21  C   UNL     1       3.051 -10.174  -0.572  0.00  0.00    +0.217 C 
ATOM     22  O   UNL     1       4.257 -10.223  -0.454  0.00  0.00    -0.276 OA
ATOM     23  N   UNL     1       2.322 -11.306  -0.516  0.00  0.00    -0.298 N 
ATOM     24  C   UNL     1       0.860 -11.262  -0.664  0.00  0.00    +0.126 C 
ATOM     25  C   UNL     1       0.455 -12.203  -1.805  0.00  0.00    +0.124 C 
ATOM     26  N   UNL     1       1.106 -13.503  -1.595  0.00  0.00    -0.327 N 
ATOM     27  C   UNL     1       2.568 -13.547  -1.447  0.00  0.00    +0.124 C 
ATOM     28  C   UNL     1       2.974 -12.607  -0.312  0.00  0.00    +0.126 C 
BRANCH  26  29
ATOM     29  C   UNL     1       0.349 -14.678  -1.537  0.00  0.00    +0.030 A 
ATOM     30  C   UNL     1       0.959 -15.883  -1.214  0.00  0.00    +0.026 A 
ATOM     31  C   UNL     1       0.210 -17.041  -1.157  0.00  0.00    +0.040 A 
ATOM     32  C   UNL     1      -1.149 -17.002  -1.421  0.00  0.00    +0.124 A 
ATOM     33  C   UNL     1      -1.759 -15.801  -1.743  0.00  0.00    +0.040 A 
ATOM     34  C   UNL     1      -1.014 -14.639  -1.796  0.00  0.00    +0.026 A 
ATOM     35  F   UNL     1      -1.880 -18.136  -1.365  0.00  0.00    -0.205 F 
ENDBRANCH  26  29
ENDBRANCH  20  21
ENDBRANCH  19  20
ENDBRANCH  16  19
TORSDOF 4
