REMARK  Name = ZINC39920497
REMARK  9 active torsions:
REMARK  status: ('A' for Active; 'I' for Inactive)
REMARK    1  A    between atoms: C_1  and  C_2
REMARK    2  A    between atoms: C_7  and  O_8
REMARK    3  A    between atoms: O_8  and  C_9
REMARK    4  A    between atoms: C_9  and  C_11
REMARK    5  A    between atoms: C_9  and  C_12
REMARK    6  A    between atoms: N_14  and  N_15
REMARK    7  A    between atoms: C_16  and  C_28
REMARK    8  A    between atoms: C_28  and  C_29
REMARK    9  A    between atoms: C_28  and  C_30
REMARK                            x       y       z     vdW  Elec       q    Type
REMARK                         _______ _______ _______ _____ _____    ______ ____
ROOT
ATOM      1  N   UNL     1       1.236   0.066   6.996  0.00  0.00    -0.195 N 
ATOM      2  C   UNL     1       2.600  -0.249   7.421  0.00  0.00    +0.183 C 
ATOM      3  N   UNL     1       3.257   0.950   7.955  0.00  0.00    -0.324 N 
ATOM      4  C   UNL     1       2.542   1.767   8.825  0.00  0.00    +0.041 A 
ATOM      5  C   UNL     1       3.167   2.511   9.811  0.00  0.00    +0.025 A 
ATOM      6  C   UNL     1       2.409   3.305  10.651  0.00  0.00    +0.017 A 
ATOM      7  C   UNL     1       1.030   3.362  10.514  0.00  0.00    +0.019 A 
ATOM      8  C   UNL     1       0.393   2.627   9.535  0.00  0.00    +0.030 A 
ATOM      9  C   UNL     1       1.144   1.824   8.681  0.00  0.00    +0.060 A 
ATOM     10  C   UNL     1       0.518   1.029   7.610  0.00  0.00    +0.266 C 
ATOM     11  O   UNL     1      -0.636   1.236   7.286  0.00  0.00    -0.268 OA
ATOM     12 BR   UNL     1       0.016   4.454  11.678  0.00  0.00    -0.050 Br
ATOM     13  H   UNL     1       4.169   1.168   7.707  0.00  0.00    +0.148 HD
ENDROOT
BRANCH   1  16
ATOM     14  C   UNL     1       0.548  -0.056   4.721  0.00  0.00    +0.270 C 
ATOM     15  O   UNL     1       0.931   1.083   4.558  0.00  0.00    -0.270 OA
ATOM     16  N   UNL     1       0.668  -0.641   5.929  0.00  0.00    -0.227 N 
ATOM     17  H   UNL     1       0.361  -1.552   6.059  0.00  0.00    +0.173 HD
BRANCH  14  18
ATOM     18  C   UNL     1      -0.064  -0.817   3.572  0.00  0.00    +0.257 C 
ATOM     19  C   UNL     1      -1.533  -1.111   3.880  0.00  0.00    +0.062 C 
BRANCH  18  20
ATOM     20  O   UNL     1       0.025  -0.033   2.381  0.00  0.00    -0.480 OA
BRANCH  20  27
ATOM     21  C   UNL     1       0.428   1.474   0.026  0.00  0.00    +0.047 C 
ATOM     22  C   UNL     1       0.216  -0.018   0.009  0.00  0.00    -0.009 A 
ATOM     23  C   UNL     1       0.219  -0.704  -1.190  0.00  0.00    +0.007 A 
ATOM     24  C   UNL     1       0.024  -2.072  -1.206  0.00  0.00    +0.000 A 
ATOM     25  C   UNL     1      -0.174  -2.758  -0.021  0.00  0.00    +0.004 A 
ATOM     26  C   UNL     1      -0.178  -2.077   1.180  0.00  0.00    +0.046 A 
ATOM     27  C   UNL     1       0.023  -0.705   1.199  0.00  0.00    +0.124 A 
ENDBRANCH  20  27
ENDBRANCH  18  20
ENDBRANCH  14  18
ENDBRANCH   1  16
BRANCH   2  28
ATOM     28  C   UNL     1       2.556  -1.325   8.509  0.00  0.00    +0.023 C 
ATOM     29  C   UNL     1       1.889  -2.585   7.953  0.00  0.00    +0.011 C 
ATOM     30  C   UNL     1       3.981  -1.657   8.956  0.00  0.00    +0.011 C 
ENDBRANCH   2  28
TORSDOF 5
