REMARK  Name = ZINC38660203
REMARK  16 active torsions:
REMARK  status: ('A' for Active; 'I' for Inactive)
REMARK    1  A    between atoms: C_1  and  C_2
REMARK    2  A    between atoms: C_2  and  C_3
REMARK    3  A    between atoms: C_3  and  C_4
REMARK    4  A    between atoms: C_4  and  O_5
REMARK    5  A    between atoms: O_5  and  C_6
REMARK    6  A    between atoms: C_9  and  C_14
REMARK    7  A    between atoms: C_11  and  O_12
REMARK    8  A    between atoms: O_12  and  C_13
REMARK    9  A    between atoms: C_19  and  O_28
REMARK   10  A    between atoms: C_23  and  N_27
REMARK   11  A    between atoms: C_24  and  C_25
REMARK   12  A    between atoms: O_28  and  C_29
REMARK   13  A    between atoms: C_29  and  C_31
REMARK   14  A    between atoms: C_31  and  C_32
REMARK   15  A    between atoms: C_35  and  O_38
REMARK   16  A    between atoms: O_38  and  C_39
REMARK                            x       y       z     vdW  Elec       q    Type
REMARK                         _______ _______ _______ _____ _____    ______ ____
ROOT
ATOM      1  C   UNL     1       1.791  -8.066  -3.074  0.00  0.00    +0.098 C 
ATOM      2  C   UNL     1       2.570  -8.647  -1.924  0.00  0.00    +0.008 A 
ATOM      3  C   UNL     1       3.952  -8.585  -1.938  0.00  0.00    +0.012 A 
ATOM      4  C   UNL     1       4.683  -9.113  -0.892  0.00  0.00    +0.047 A 
ATOM      5  C   UNL     1       4.032  -9.709   0.178  0.00  0.00    +0.135 A 
ATOM      6  C   UNL     1       2.648  -9.773   0.195  0.00  0.00    +0.093 A 
ATOM      7  C   UNL     1       1.914  -9.241  -0.857  0.00  0.00    +0.138 A 
ATOM      8  O   UNL     1       0.560  -9.312  -0.825  0.00  0.00    -0.441 OA
ATOM      9  C   UNL     1      -0.145  -9.171  -1.960  0.00  0.00    +0.199 C 
ATOM     10  C   UNL     1       0.382  -8.588  -3.059  0.00  0.00    +0.098 C 
ENDROOT
BRANCH   1  14
ATOM     11  C   UNL     1       1.724  -3.804  -2.723  0.00  0.00    +0.162 A 
ATOM     12  C   UNL     1       1.183  -4.593  -1.721  0.00  0.00    +0.050 A 
ATOM     13  C   UNL     1       1.206  -5.970  -1.837  0.00  0.00    +0.008 A 
ATOM     14  C   UNL     1       1.768  -6.564  -2.952  0.00  0.00    -0.031 A 
ATOM     15  C   UNL     1       2.309  -5.782  -3.956  0.00  0.00    +0.054 A 
ATOM     16  C   UNL     1       2.284  -4.401  -3.848  0.00  0.00    +0.162 A 
BRANCH  16  17
ATOM     17  O   UNL     1       2.811  -3.631  -4.838  0.00  0.00    -0.491 OA
ATOM     18  C   UNL     1       3.369  -4.312  -5.963  0.00  0.00    +0.277 C 
ENDBRANCH  16  17
BRANCH  11  19
ATOM     19  O   UNL     1       1.701  -2.449  -2.611  0.00  0.00    -0.488 OA
BRANCH  19  20
ATOM     20  C   UNL     1       1.110  -1.906  -1.428  0.00  0.00    +0.229 C 
BRANCH  20  21
ATOM     21  C   UNL     1       1.177  -0.378  -1.480  0.00  0.00    +0.041 C 
BRANCH  21  23
ATOM     22  C   UNL     1       0.611   1.731  -0.266  0.00  0.00    +0.004 C 
ATOM     23  C   UNL     1       0.544   0.203  -0.214  0.00  0.00    -0.000 C 
ENDBRANCH  21  23
ENDBRANCH  20  21
ENDBRANCH  19  20
ENDBRANCH  11  19
ENDBRANCH   1  14
BRANCH   9  24
ATOM     24  N   UNL     1      -1.437  -9.631  -2.003  0.00  0.00    -0.328 N 
ATOM     25  H   UNL     1      -1.828 -10.052  -1.221  0.00  0.00    +0.145 HD
ATOM     26  H   UNL     1      -1.959  -9.537  -2.815  0.00  0.00    +0.145 HD
ENDBRANCH   9  24
BRANCH  10  27
ATOM     27  C   UNL     1      -0.424  -8.466  -4.237  0.00  0.00    +0.101 C 
ATOM     28  N   UNL     1      -1.062  -8.370  -5.171  0.00  0.00    -0.191 NA
ENDBRANCH  10  27
BRANCH   5  29
ATOM     29  O   UNL     1       4.750 -10.230   1.208  0.00  0.00    -0.425 OA
BRANCH  29  30
ATOM     30  C   UNL     1       4.764 -11.565   1.355  0.00  0.00    +0.317 C 
ATOM     31  O   UNL     1       4.239 -12.269   0.526  0.00  0.00    -0.250 OA
BRANCH  30  32
ATOM     32  C   UNL     1       5.437 -12.183   2.553  0.00  0.00    +0.156 C 
BRANCH  32  33
ATOM     33  C   UNL     1       5.313 -13.683   2.480  0.00  0.00    -0.037 A 
ATOM     34  C   UNL     1       4.222 -14.315   3.049  0.00  0.00    +0.008 A 
ATOM     35  C   UNL     1       4.107 -15.690   2.983  0.00  0.00    +0.046 A 
ATOM     36  C   UNL     1       5.086 -16.437   2.345  0.00  0.00    +0.120 A 
ATOM     37  C   UNL     1       6.179 -15.802   1.775  0.00  0.00    +0.046 A 
ATOM     38  C   UNL     1       6.288 -14.426   1.839  0.00  0.00    +0.008 A 
BRANCH  36  39
ATOM     39  O   UNL     1       4.975 -17.790   2.280  0.00  0.00    -0.495 OA
ATOM     40  C   UNL     1       6.021 -18.495   1.608  0.00  0.00    +0.277 C 
ENDBRANCH  36  39
ENDBRANCH  32  33
ENDBRANCH  30  32
ENDBRANCH  29  30
ENDBRANCH   5  29
TORSDOF 13
