REMARK  Name = ZINC10060940
REMARK  3 active torsions:
REMARK  status: ('A' for Active; 'I' for Inactive)
REMARK    1  A    between atoms: C_6  and  C_7
REMARK    2  A    between atoms: C_13  and  C_15
REMARK    3  A    between atoms: C_15  and  C_16
REMARK                            x       y       z     vdW  Elec       q    Type
REMARK                         _______ _______ _______ _____ _____    ______ ____
ROOT
ATOM      1  C   UNL     1       7.355  -1.555  -4.796  0.00  0.00    +0.080 A 
ATOM      2  C   UNL     1       6.365  -1.228  -5.680  0.00  0.00    +0.076 A 
ATOM      3  S   UNL     1       5.045  -0.797  -4.554  0.00  0.00    -0.060 S 
ATOM      4  C   UNL     1       5.940  -1.094  -3.036  0.00  0.00    +0.165 A 
ATOM      5  N   UNL     1       7.118  -1.475  -3.496  0.00  0.00    -0.225 NA
ATOM      6  N   UNL     1       5.512  -0.956  -1.721  0.00  0.00    -0.264 N 
ATOM      7  C   UNL     1       4.256  -0.544  -1.461  0.00  0.00    +0.223 C 
ATOM      8  O   UNL     1       3.498  -0.293  -2.375  0.00  0.00    -0.275 OA
ATOM      9  H   UNL     1       6.118  -1.156  -0.991  0.00  0.00    +0.157 HD
ENDROOT
BRANCH   1  15
ATOM     10  C   UNL     1       8.965  -1.968  -6.654  0.00  0.00    +0.014 A 
ATOM     11  C   UNL     1      10.203  -2.373  -7.111  0.00  0.00    +0.050 A 
ATOM     12  C   UNL     1      11.170  -2.803  -6.216  0.00  0.00    +0.166 A 
ATOM     13  C   UNL     1      10.895  -2.827  -4.850  0.00  0.00    +0.167 A 
ATOM     14  C   UNL     1       9.658  -2.417  -4.387  0.00  0.00    +0.059 A 
ATOM     15  C   UNL     1       8.685  -1.990  -5.289  0.00  0.00    +0.005 A 
ATOM     16  O   UNL     1      12.000  -3.285  -4.191  0.00  0.00    -0.453 OA
ATOM     17  C   UNL     1      13.087  -3.152  -5.125  0.00  0.00    +0.466 C 
ATOM     18  O   UNL     1      12.447  -3.246  -6.411  0.00  0.00    -0.453 OA
ENDBRANCH   1  15
BRANCH   7  19
ATOM     19  C   UNL     1       3.792  -0.394  -0.035  0.00  0.00    +0.138 C 
BRANCH  19  20
ATOM     20  C   UNL     1       2.360   0.077  -0.020  0.00  0.00    -0.000 A 
ATOM     21  C   UNL     1       1.221  -0.657  -0.013  0.00  0.00    +0.013 A 
ATOM     22  C   UNL     1       0.002  -0.004   0.002  0.00  0.00    +0.028 A 
ATOM     23  C   UNL     1      -0.016   1.352   0.009  0.00  0.00    +0.078 A 
ATOM     24  S   UNL     1       1.725   1.745  -0.005  0.00  0.00    -0.081 S 
ATOM     25 CL   UNL     1      -1.379   2.427   0.022  0.00  0.00    -0.076 Cl
ENDBRANCH  19  20
ENDBRANCH   7  19
TORSDOF 3
