REMARK  Name = ZINC02449549
REMARK  3 active torsions:
REMARK  status: ('A' for Active; 'I' for Inactive)
REMARK    1  A    between atoms: C_1  and  C_2
REMARK    2  A    between atoms: N_5  and  C_7
REMARK    3  A    between atoms: C_17  and  C_19
REMARK                            x       y       z     vdW  Elec       q    Type
REMARK                         _______ _______ _______ _____ _____    ______ ____
ROOT
ATOM      1  C   UNL     1       0.492   1.756  -0.289  0.00  0.00    +0.068 C 
ATOM      2  C   UNL     1       0.554   0.256  -0.152  0.00  0.00    +0.066 A 
ATOM      3  C   UNL     1       0.230  -0.676  -1.161  0.00  0.00    +0.032 A 
ATOM      4  C   UNL     1       0.414  -1.914  -0.652  0.00  0.00    +0.128 A 
ATOM      5  N   UNL     1       0.839  -1.759   0.640  0.00  0.00    -0.247 N 
ATOM      6  N   UNL     1       0.922  -0.394   0.914  0.00  0.00    -0.174 NA
ATOM      7  N   UNL     1       0.252  -3.164  -1.200  0.00  0.00    -0.270 N 
ATOM      8  C   UNL     1      -0.168  -3.617  -2.343  0.00  0.00    +0.228 C 
ATOM      9  O   UNL     1      -0.263  -4.824  -2.409  0.00  0.00    -0.275 OA
ATOM     10  C   UNL     1      -0.550  -2.896  -3.575  0.00  0.00    +0.166 C 
ATOM     11  S   UNL     1      -1.431  -1.363  -3.247  0.00  0.00    -0.138 S 
ATOM     12  C   UNL     1      -0.229  -0.247  -2.519  0.00  0.00    +0.112 C 
ATOM     13  H   UNL     1       0.513  -3.873  -0.592  0.00  0.00    +0.156 HD
ENDROOT
BRANCH  12  14
ATOM     14  C   UNL     1      -0.846   1.124  -2.411  0.00  0.00    -0.030 A 
ATOM     15  C   UNL     1      -2.048   1.291  -1.750  0.00  0.00    +0.006 A 
ATOM     16  C   UNL     1      -2.614   2.548  -1.650  0.00  0.00    +0.015 A 
ATOM     17  C   UNL     1      -1.977   3.639  -2.211  0.00  0.00    +0.018 A 
ATOM     18  C   UNL     1      -0.773   3.472  -2.873  0.00  0.00    +0.015 A 
ATOM     19  C   UNL     1      -0.206   2.216  -2.968  0.00  0.00    +0.006 A 
ATOM     20 BR   UNL     1      -2.750   5.360  -2.075  0.00  0.00    -0.050 Br
ENDBRANCH  12  14
BRANCH   5  21
ATOM     21  C   UNL     1       1.159  -2.842   1.573  0.00  0.00    +0.109 C 
ATOM     22  C   UNL     1       0.296  -2.715   2.846  0.00  0.00    +0.027 C 
ATOM     23  C   UNL     1       1.244  -3.145   3.993  0.00  0.00    +0.002 C 
ATOM     24  C   UNL     1       2.603  -2.543   3.556  0.00  0.00    +0.002 C 
ATOM     25  C   UNL     1       2.626  -2.732   2.025  0.00  0.00    +0.027 C 
ENDBRANCH   5  21
TORSDOF 2
