REMARK  Name = ZINC62265597
REMARK  5 active torsions:
REMARK  status: ('A' for Active; 'I' for Inactive)
REMARK    1  A    between atoms: C_1  and  C_2
REMARK    2  A    between atoms: C_2  and  N_3
REMARK    3  A    between atoms: N_3  and  S_4
REMARK    4  A    between atoms: S_4  and  N_7
REMARK    5  A    between atoms: C_20  and  C_22
REMARK                            x       y       z     vdW  Elec       q    Type
REMARK                         _______ _______ _______ _____ _____    ______ ____
ROOT
ATOM      1  N   UNL     1       0.172  -3.414  -1.316  0.00  0.00    -0.157 NA
ATOM      2  C   UNL     1      -0.190  -3.797   0.057  0.00  0.00    +0.116 C 
ATOM      3  C   UNL     1      -1.252  -2.824   0.582  0.00  0.00    +0.055 C 
ATOM      4  C   UNL     1      -2.299  -2.620  -0.483  0.00  0.00    -0.016 A 
ATOM      5  C   UNL     1      -3.640  -2.090  -0.334  0.00  0.00    +0.003 A 
ATOM      6  C   UNL     1      -4.357  -1.625   0.772  0.00  0.00    +0.010 A 
ATOM      7  C   UNL     1      -5.637  -1.184   0.541  0.00  0.00    +0.001 A 
ATOM      8  C   UNL     1      -6.202  -1.195  -0.724  0.00  0.00    +0.002 A 
ATOM      9  C   UNL     1      -5.514  -1.649  -1.836  0.00  0.00    +0.026 A 
ATOM     10  C   UNL     1      -4.213  -2.103  -1.631  0.00  0.00    +0.047 A 
ATOM     11  N   UNL     1      -3.274  -2.606  -2.486  0.00  0.00    -0.356 N 
ATOM     12  H   UNL     1      -3.396  -2.726  -3.440  0.00  0.00    +0.166 HD
ATOM     13  C   UNL     1      -2.135  -2.914  -1.791  0.00  0.00    +0.040 A 
ATOM     14  C   UNL     1      -0.865  -3.496  -2.360  0.00  0.00    +0.130 C 
ENDROOT
BRANCH  14  15
ATOM     15  C   UNL     1      -0.430  -2.694  -3.588  0.00  0.00    +0.014 C 
ATOM     16  C   UNL     1      -0.649  -1.202  -3.326  0.00  0.00    +0.005 C 
ATOM     17  C   UNL     1      -0.215  -0.400  -4.554  0.00  0.00    +0.000 C 
ATOM     18  C   UNL     1      -1.044  -0.833  -5.765  0.00  0.00    +0.000 C 
ATOM     19  C   UNL     1      -0.824  -2.324  -6.027  0.00  0.00    +0.000 C 
ATOM     20  C   UNL     1      -1.259  -3.127  -4.799  0.00  0.00    +0.005 C 
ENDBRANCH  14  15
BRANCH   1  21
ATOM     21  S   UNL     1       1.703  -2.898  -1.678  0.00  0.00    +0.098 S 
ATOM     22  O   UNL     1       2.003  -3.395  -2.975  0.00  0.00    -0.141 OA
ATOM     23  O   UNL     1       2.509  -3.189  -0.545  0.00  0.00    -0.141 OA
BRANCH  21  24
ATOM     24  N   UNL     1       1.645  -1.248  -1.807  0.00  0.00    -0.180 NA
ATOM     25  H   UNL     1       1.849  -0.820  -2.653  0.00  0.00    +0.149 HD
BRANCH  24  27
ATOM     26  C   UNL     1       1.663   1.025  -0.904  0.00  0.00    +0.022 C 
ATOM     27  C   UNL     1       1.287  -0.434  -0.642  0.00  0.00    +0.103 C 
ENDBRANCH  24  27
ENDBRANCH  21  24
ENDBRANCH   1  21
TORSDOF 4
