REMARK  Name = ZINC23245212
REMARK  9 active torsions:
REMARK  status: ('A' for Active; 'I' for Inactive)
REMARK    1  A    between atoms: C_1  and  C_2
REMARK    2  A    between atoms: C_3  and  C_8
REMARK    3  A    between atoms: C_4  and  C_7
REMARK    4  A    between atoms: C_8  and  C_9
REMARK    5  A    between atoms: N_11  and  C_12
REMARK    6  A    between atoms: C_17  and  C_18
REMARK    7  A    between atoms: C_18  and  C_19
REMARK    8  A    between atoms: C_19  and  C_20
REMARK    9  A    between atoms: C_19  and  C_30
REMARK                            x       y       z     vdW  Elec       q    Type
REMARK                         _______ _______ _______ _____ _____    ______ ____
ROOT
ATOM      1  C   UNL     1      -3.088   0.666  -1.173  0.00  0.00    +0.057 C 
ENDROOT
BRANCH   1   2
ATOM      2  C   UNL     1      -3.505  -0.522  -2.001  0.00  0.00    -0.015 A 
ATOM      3  C   UNL     1      -4.458  -1.415  -1.693  0.00  0.00    +0.087 A 
ATOM      4  N   UNL     1      -4.557  -2.354  -2.684  0.00  0.00    -0.360 N 
ATOM      5  H   UNL     1      -5.291  -3.168  -2.599  0.00  0.00    +0.165 HD
ATOM      6  C   UNL     1      -3.646  -2.080  -3.679  0.00  0.00    +0.047 A 
ATOM      7  C   UNL     1      -2.951  -0.917  -3.298  0.00  0.00    +0.003 A 
ATOM      8  C   UNL     1      -1.957  -0.396  -4.129  0.00  0.00    +0.010 A 
ATOM      9  C   UNL     1      -1.666  -1.017  -5.311  0.00  0.00    +0.001 A 
ATOM     10  C   UNL     1      -2.351  -2.162  -5.693  0.00  0.00    +0.002 A 
ATOM     11  C   UNL     1      -3.330  -2.698  -4.885  0.00  0.00    +0.026 A 
ENDBRANCH   1   2
BRANCH   1  12
ATOM     12  C   UNL     1      -4.269   1.583  -0.981  0.00  0.00    -0.015 A 
ATOM     13  C   UNL     1      -5.433   1.272  -0.389  0.00  0.00    +0.087 A 
ATOM     14  N   UNL     1      -6.266   2.358  -0.398  0.00  0.00    -0.360 N 
ATOM     15  H   UNL     1      -7.269   2.286   0.047  0.00  0.00    +0.165 HD
ATOM     16  C   UNL     1      -5.641   3.422  -1.011  0.00  0.00    +0.047 A 
ATOM     17  C   UNL     1      -4.361   2.985  -1.398  0.00  0.00    +0.003 A 
ATOM     18  C   UNL     1      -3.491   3.864  -2.045  0.00  0.00    +0.010 A 
ATOM     19  C   UNL     1      -3.887   5.147  -2.297  0.00  0.00    +0.001 A 
ATOM     20  C   UNL     1      -5.148   5.584  -1.915  0.00  0.00    +0.002 A 
ATOM     21  C   UNL     1      -6.025   4.731  -1.281  0.00  0.00    +0.026 A 
ENDBRANCH   1  12
BRANCH   1  22
ATOM     22  C   UNL     1      -2.587   0.187   0.190  0.00  0.00    +0.050 C 
BRANCH  22  28
ATOM     23  C   UNL     1      -0.100   0.001  -0.077  0.00  0.00    +0.037 A 
ATOM     24  C   UNL     1       1.054  -0.756  -0.241  0.00  0.00    +0.023 A 
ATOM     25  C   UNL     1       0.969  -2.131  -0.327  0.00  0.00    +0.002 A 
ATOM     26  C   UNL     1      -0.263  -2.756  -0.249  0.00  0.00    +0.000 A 
ATOM     27  C   UNL     1      -1.413  -2.006  -0.085  0.00  0.00    +0.005 A 
ATOM     28  C   UNL     1      -1.334  -0.629   0.006  0.00  0.00    -0.025 A 
BRANCH  23  31
ATOM     29  C   UNL     1       1.041   1.971   0.615  0.00  0.00    +0.222 C 
ATOM     30  O   UNL     1       1.960   1.286   1.012  0.00  0.00    -0.275 OA
ATOM     31  N   UNL     1      -0.017   1.395   0.010  0.00  0.00    -0.285 N 
ATOM     32  H   UNL     1      -0.815   2.021  -0.416  0.00  0.00    +0.155 HD
BRANCH  29  33
ATOM     33  C   UNL     1       1.081   3.466   0.798  0.00  0.00    +0.136 C 
BRANCH  33  36
ATOM     34  C   UNL     1       1.593   3.740   3.991  0.00  0.00    +0.069 C 
ATOM     35  C   UNL     1       2.591   3.973   2.886  0.00  0.00    +0.084 A 
ATOM     36  C   UNL     1       2.360   3.852   1.496  0.00  0.00    +0.026 A 
ATOM     37  C   UNL     1       3.553   4.168   0.938  0.00  0.00    +0.138 A 
ATOM     38  O   UNL     1       4.387   4.441   1.951  0.00  0.00    -0.359 OA
ATOM     39  N   UNL     1       3.837   4.325   3.022  0.00  0.00    -0.083 NA
ATOM     40  C   UNL     1       3.878   4.206  -0.533  0.00  0.00    +0.089 C 
ENDBRANCH  33  36
ENDBRANCH  29  33
ENDBRANCH  23  31
ENDBRANCH  22  28
ENDBRANCH   1  22
TORSDOF 7
