REMARK  Name = ZINC04694032
REMARK  6 active torsions:
REMARK  status: ('A' for Active; 'I' for Inactive)
REMARK    1  A    between atoms: C_3  and  N_28
REMARK    2  A    between atoms: C_6  and  C_7
REMARK    3  A    between atoms: C_11  and  S_13
REMARK    4  A    between atoms: S_13  and  C_14
REMARK    5  A    between atoms: C_14  and  C_15
REMARK    6  A    between atoms: N_17  and  C_18
REMARK                            x       y       z     vdW  Elec       q    Type
REMARK                         _______ _______ _______ _____ _____    ______ ____
ROOT
ATOM      1  S   UNL     1      -5.150  -1.006   0.040  0.00  0.00    -0.079 S 
ENDROOT
BRANCH   1   6
ATOM      2  C   UNL     1      -1.271  -0.766   0.011  0.00  0.00    +0.090 A 
ATOM      3  C   UNL     1      -1.392  -2.117   0.010  0.00  0.00    +0.113 A 
ATOM      4  N   UNL     1      -2.737  -2.396   0.020  0.00  0.00    -0.339 N 
ATOM      5  H   UNL     1      -3.140  -3.279   0.023  0.00  0.00    +0.167 HD
ATOM      6  C   UNL     1      -3.399  -1.206   0.027  0.00  0.00    +0.167 A 
ATOM      7  N   UNL     1      -2.519  -0.235   0.026  0.00  0.00    -0.222 NA
BRANCH   2  13
ATOM      8  C   UNL     1      -0.017   1.390   0.010  0.00  0.00    +0.012 A 
ATOM      9  C   UNL     1       1.170   2.093   0.002  0.00  0.00    +0.033 A 
ATOM     10  C   UNL     1       2.377   1.418  -0.013  0.00  0.00    +0.126 A 
ATOM     11  C   UNL     1       2.402   0.035  -0.022  0.00  0.00    +0.033 A 
ATOM     12  C   UNL     1       1.221  -0.679  -0.014  0.00  0.00    +0.012 A 
ATOM     13  C   UNL     1       0.002  -0.004   0.002  0.00  0.00    +0.002 A 
BRANCH  10  14
ATOM     14  N   UNL     1       3.648   2.178  -0.022  0.00  0.00    +0.056 N 
ATOM     15  O   UNL     1       3.629   3.387  -0.015  0.00  0.00    -0.126 OA
ATOM     16  O   UNL     1       4.704   1.591  -0.036  0.00  0.00    -0.126 OA
ENDBRANCH  10  14
ENDBRANCH   2  13
ENDBRANCH   1   6
BRANCH   1  17
ATOM     17  C   UNL     1      -5.385   0.793   0.044  0.00  0.00    +0.173 C 
BRANCH  17  18
ATOM     18  C   UNL     1      -6.859   1.106   0.055  0.00  0.00    +0.224 C 
ATOM     19  O   UNL     1      -7.671   0.205   0.059  0.00  0.00    -0.275 OA
ATOM     20  N   UNL     1      -7.275   2.388   0.060  0.00  0.00    -0.309 N 
ATOM     21  H   UNL     1      -6.626   3.109   0.056  0.00  0.00    +0.149 HD
BRANCH  20  22
ATOM     22  C   UNL     1      -8.708   2.693   0.070  0.00  0.00    +0.035 C 
ATOM     23  C   UNL     1      -9.366   2.096  -1.175  0.00  0.00    +0.029 C 
ATOM     24  C   UNL     1     -10.863   2.414  -1.163  0.00  0.00    -0.008 C 
ATOM     25  C   UNL     1     -11.061   3.931  -1.160  0.00  0.00    +0.007 C 
ATOM     26  C   UNL     1     -10.403   4.529   0.085  0.00  0.00    -0.008 C 
ATOM     27  C   UNL     1      -8.907   4.210   0.074  0.00  0.00    +0.029 C 
ATOM     28  C   UNL     1     -11.043   3.928   1.338  0.00  0.00    +0.007 C 
ATOM     29  C   UNL     1     -10.845   2.410   1.335  0.00  0.00    -0.008 C 
ATOM     30  C   UNL     1     -11.503   1.813   0.089  0.00  0.00    +0.007 C 
ATOM     31  C   UNL     1      -9.348   2.092   1.324  0.00  0.00    +0.029 C 
ENDBRANCH  20  22
ENDBRANCH  17  18
ENDBRANCH   1  17
TORSDOF 6
