REMARK  Name = ZINC11035461
REMARK  6 active torsions:
REMARK  status: ('A' for Active; 'I' for Inactive)
REMARK    1  A    between atoms: C_1  and  C_2
REMARK    2  A    between atoms: C_2  and  C_4
REMARK    3  A    between atoms: C_2  and  O_17
REMARK    4  A    between atoms: N_6  and  C_7
REMARK    5  A    between atoms: C_10  and  N_14
REMARK    6  A    between atoms: O_17  and  C_18
REMARK                            x       y       z     vdW  Elec       q    Type
REMARK                         _______ _______ _______ _____ _____    ______ ____
ROOT
ATOM      1  C   UNL     1      -0.226   1.285   0.047  0.00  0.00    +0.258 C 
ATOM      2  O   UNL     1      -1.338   1.768   0.001  0.00  0.00    -0.271 OA
ATOM      3  N   UNL     1      -0.073  -0.053   0.092  0.00  0.00    -0.281 N 
ATOM      4  H   UNL     1       0.815  -0.441   0.064  0.00  0.00    +0.155 HD
ENDROOT
BRANCH   3   5
ATOM      5  C   UNL     1      -1.197  -0.883   0.179  0.00  0.00    +0.052 A 
ATOM      6  C   UNL     1      -2.376  -0.527  -0.461  0.00  0.00    +0.027 A 
ATOM      7  C   UNL     1      -3.484  -1.348  -0.373  0.00  0.00    +0.034 A 
ATOM      8  C   UNL     1      -3.419  -2.524   0.352  0.00  0.00    +0.128 A 
ATOM      9  C   UNL     1      -2.247  -2.882   0.991  0.00  0.00    +0.054 A 
ATOM     10  C   UNL     1      -1.133  -2.068   0.902  0.00  0.00    +0.064 A 
ATOM     11 CL   UNL     1       0.341  -2.521   1.700  0.00  0.00    -0.082 Cl
BRANCH   8  12
ATOM     12  N   UNL     1      -4.608  -3.401   0.444  0.00  0.00    +0.056 N 
ATOM     13  O   UNL     1      -5.641  -3.087  -0.119  0.00  0.00    -0.126 OA
ATOM     14  O   UNL     1      -4.553  -4.437   1.082  0.00  0.00    -0.126 OA
ENDBRANCH   8  12
ENDBRANCH   3   5
BRANCH   1  16
ATOM     15  C   UNL     1       1.788   1.956  -1.235  0.00  0.00    +0.062 C 
ATOM     16  C   UNL     1       0.985   2.182   0.047  0.00  0.00    +0.256 C 
BRANCH  16  17
ATOM     17  O   UNL     1       0.567   3.547   0.113  0.00  0.00    -0.479 OA
BRANCH  17  18
ATOM     18  C   UNL     1       1.456   4.441   0.621  0.00  0.00    +0.136 A 
ATOM     19  C   UNL     1       2.667   4.001   1.134  0.00  0.00    +0.048 A 
ATOM     20  C   UNL     1       3.572   4.912   1.645  0.00  0.00    +0.019 A 
ATOM     21  C   UNL     1       3.267   6.261   1.655  0.00  0.00    +0.019 A 
ATOM     22  C   UNL     1       2.057   6.702   1.149  0.00  0.00    +0.034 A 
ATOM     23  C   UNL     1       1.151   5.795   0.632  0.00  0.00    +0.061 A 
ATOM     24 BR   UNL     1      -0.502   6.398  -0.060  0.00  0.00    -0.046 Br
ATOM     25 BR   UNL     1       4.504   7.504   2.362  0.00  0.00    -0.050 Br
ENDBRANCH  17  18
ENDBRANCH  16  17
ENDBRANCH   1  16
TORSDOF 5
