REMARK  Name = ZINC64029510
REMARK  5 active torsions:
REMARK  status: ('A' for Active; 'I' for Inactive)
REMARK    1  A    between atoms: C_3  and  N_17
REMARK    2  A    between atoms: C_6  and  C_7
REMARK    3  A    between atoms: C_7  and  N_8
REMARK    4  A    between atoms: N_8  and  C_9
REMARK    5  A    between atoms: C_12  and  N_14
REMARK                            x       y       z     vdW  Elec       q    Type
REMARK                         _______ _______ _______ _____ _____    ______ ____
ROOT
ATOM      1  C   UNL     1      -0.017   1.379   0.026  0.00  0.00    +0.007 A 
ATOM      2  C   UNL     1       1.169   2.087   0.018  0.00  0.00    +0.023 A 
ATOM      3  C   UNL     1       2.381   1.409  -0.013  0.00  0.00    +0.030 A 
ATOM      4  C   UNL     1       2.396   0.020  -0.037  0.00  0.00    +0.023 A 
ATOM      5  C   UNL     1       1.207  -0.682  -0.029  0.00  0.00    +0.007 A 
ATOM      6  C   UNL     1       0.002  -0.004   0.002  0.00  0.00    -0.030 A 
ENDROOT
BRANCH   3   7
ATOM      7  N   UNL     1       3.582   2.122  -0.021  0.00  0.00    -0.320 N 
ATOM      8  C   UNL     1       4.882   1.435   0.066  0.00  0.00    +0.124 C 
ATOM      9  C   UNL     1       5.670   1.740  -1.209  0.00  0.00    +0.123 C 
ATOM     10  N   UNL     1       5.620   3.162  -1.519  0.00  0.00    -0.313 N 
ATOM     11  C   UNL     1       4.682   4.001  -1.078  0.00  0.00    +0.230 C 
ATOM     12  O   UNL     1       4.702   5.149  -1.469  0.00  0.00    -0.274 OA
ATOM     13  C   UNL     1       3.600   3.589  -0.123  0.00  0.00    +0.200 C 
ATOM     14  H   UNL     1       6.319   3.525  -2.087  0.00  0.00    +0.149 HD
ENDBRANCH   3   7
BRANCH   6  15
ATOM     15  C   UNL     1      -1.294  -0.773   0.011  0.00  0.00    +0.137 C 
BRANCH  15  16
ATOM     16  N   UNL     1      -1.737  -0.999  -1.367  0.00  0.00    -0.334 N 
ATOM     17  H   UNL     1      -1.207  -0.665  -2.108  0.00  0.00    +0.147 HD
BRANCH  16  18
ATOM     18  C   UNL     1      -2.921  -1.696  -1.614  0.00  0.00    +0.068 A 
ATOM     19  C   UNL     1      -3.498  -2.013  -2.808  0.00  0.00    +0.033 A 
ATOM     20  C   UNL     1      -4.688  -2.718  -2.806  0.00  0.00    +0.042 A 
ATOM     21  C   UNL     1      -5.242  -3.071  -1.622  0.00  0.00    +0.165 A 
ATOM     22  S   UNL     1      -4.070  -2.410  -0.449  0.00  0.00    -0.050 S 
BRANCH  21  23
ATOM     23  N   UNL     1      -6.496  -3.818  -1.366  0.00  0.00    +0.063 N 
ATOM     24  O   UNL     1      -7.173  -4.199  -2.293  0.00  0.00    -0.126 OA
ATOM     25  O   UNL     1      -6.842  -4.047  -0.230  0.00  0.00    -0.126 OA
ENDBRANCH  21  23
ENDBRANCH  16  18
ENDBRANCH  15  16
ENDBRANCH   6  15
TORSDOF 5
