REMARK  Name = ZINC05846777
REMARK  5 active torsions:
REMARK  status: ('A' for Active; 'I' for Inactive)
REMARK    1  A    between atoms: C_4  and  C_7
REMARK    2  A    between atoms: C_9  and  C_20
REMARK    3  A    between atoms: N_11  and  N_12
REMARK    4  A    between atoms: N_12  and  N_13
REMARK    5  A    between atoms: N_13  and  C_14
REMARK                            x       y       z     vdW  Elec       q    Type
REMARK                         _______ _______ _______ _____ _____    ______ ____
ROOT
ATOM      1  C   UNL     1       2.424   0.953  -0.176  0.00  0.00    +0.003 C 
ATOM      2  C   UNL     1       3.055   0.853  -1.577  0.00  0.00    +0.080 C 
ATOM      3  N   UNL     1       4.341   1.149  -0.908  0.00  0.00    -0.266 NA
ATOM      4  N   UNL     1       3.567   1.692   0.087  0.00  0.00    +0.406 N 
ATOM      5  H   UNL     1       3.946   1.512   1.024  0.00  0.00    -0.058 HD
ATOM      6  H   UNL     1       3.419   2.701  -0.034  0.00  0.00    -0.058 HD
ENDROOT
BRANCH   1  10
ATOM      7  C   UNL     1      -1.286   3.069  -0.104  0.00  0.00    +0.000 A 
ATOM      8  C   UNL     1      -1.278   1.689  -0.191  0.00  0.00    +0.000 A 
ATOM      9  C   UNL     1      -0.078   1.004  -0.209  0.00  0.00    +0.002 A 
ATOM     10  C   UNL     1       1.115   1.699  -0.150  0.00  0.00    -0.057 A 
ATOM     11  C   UNL     1       1.108   3.079  -0.068  0.00  0.00    +0.002 A 
ATOM     12  C   UNL     1      -0.092   3.764  -0.045  0.00  0.00    +0.000 A 
ENDBRANCH   1  10
BRANCH   2  13
ATOM     13  C   UNL     1       2.984  -0.528  -2.178  0.00  0.00    -0.032 A 
ATOM     14  C   UNL     1       3.897  -1.494  -1.801  0.00  0.00    +0.005 A 
ATOM     15  C   UNL     1       3.829  -2.761  -2.348  0.00  0.00    +0.000 A 
ATOM     16  C   UNL     1       2.854  -3.059  -3.281  0.00  0.00    +0.000 A 
ATOM     17  C   UNL     1       1.943  -2.091  -3.663  0.00  0.00    +0.000 A 
ATOM     18  C   UNL     1       2.008  -0.826  -3.111  0.00  0.00    +0.005 A 
ENDBRANCH   2  13
BRANCH   3  19
ATOM     19  N   UNL     1       5.105   2.130  -1.660  0.00  0.00    -0.190 NA
ATOM     20  H   UNL     1       4.582   2.464  -2.456  0.00  0.00    +0.162 HD
BRANCH  19  21
ATOM     21  N   UNL     1       6.311   1.619  -2.048  0.00  0.00    -0.268 N 
ATOM     22  H   UNL     1       6.913   1.242  -1.387  0.00  0.00    +0.167 HD
BRANCH  21  23
ATOM     23  C   UNL     1       6.678   1.640  -3.395  0.00  0.00    +0.042 A 
ATOM     24  C   UNL     1       7.851   1.019  -3.807  0.00  0.00    +0.024 A 
ATOM     25  C   UNL     1       8.208   1.037  -5.141  0.00  0.00    +0.002 A 
ATOM     26  C   UNL     1       7.406   1.682  -6.064  0.00  0.00    +0.000 A 
ATOM     27  C   UNL     1       6.241   2.305  -5.657  0.00  0.00    +0.002 A 
ATOM     28  C   UNL     1       5.875   2.286  -4.326  0.00  0.00    +0.024 A 
ENDBRANCH  21  23
ENDBRANCH  19  21
ENDBRANCH   3  19
TORSDOF 5
