REMARK  Name = ZINC12693504
REMARK  3 active torsions:
REMARK  status: ('A' for Active; 'I' for Inactive)
REMARK    1  A    between atoms: C_6  and  C_7
REMARK    2  A    between atoms: N_12  and  S_13
REMARK    3  A    between atoms: S_13  and  C_16
REMARK                            x       y       z     vdW  Elec       q    Type
REMARK                         _______ _______ _______ _____ _____    ______ ____
ROOT
ATOM      1  C   UNL     1      -0.749   3.159   2.052  0.00  0.00    +0.110 C 
ATOM      2  C   UNL     1      -1.756   3.143   3.222  0.00  0.00    +0.027 C 
ATOM      3  C   UNL     1      -2.786   2.069   2.782  0.00  0.00    +0.019 C 
ATOM      4  C   UNL     1      -1.878   1.049   2.050  0.00  0.00    +0.110 C 
ATOM      5  N   UNL     1      -0.872   1.871   1.353  0.00  0.00    -0.169 NA
ENDROOT
BRANCH   1  11
ATOM      6  C   UNL     1       1.309   2.243   3.141  0.00  0.00    +0.009 A 
ATOM      7  C   UNL     1       2.596   2.388   3.624  0.00  0.00    +0.050 A 
ATOM      8  C   UNL     1       3.228   3.621   3.558  0.00  0.00    +0.162 A 
ATOM      9  C   UNL     1       2.566   4.708   2.998  0.00  0.00    +0.162 A 
ATOM     10  C   UNL     1       1.277   4.554   2.512  0.00  0.00    +0.054 A 
ATOM     11  C   UNL     1       0.652   3.323   2.582  0.00  0.00    -0.025 A 
ATOM     12  O   UNL     1       3.171   5.925   2.917  0.00  0.00    -0.485 OA
ATOM     13  C   UNL     1       4.317   6.131   3.749  0.00  0.00    +0.270 C 
ATOM     14  C   UNL     1       5.229   4.903   3.625  0.00  0.00    +0.270 C 
ATOM     15  O   UNL     1       4.491   3.752   4.048  0.00  0.00    -0.485 OA
ENDBRANCH   1  11
BRANCH   5  16
ATOM     16  S   UNL     1      -0.017   1.417   0.010  0.00  0.00    +0.068 S 
ATOM     17  O   UNL     1       0.002  -0.004   0.002  0.00  0.00    -0.152 OA
ATOM     18  O   UNL     1       1.172   2.195   0.003  0.00  0.00    -0.152 OA
BRANCH  16  19
ATOM     19  C   UNL     1      -0.954   1.915  -1.397  0.00  0.00    +0.144 A 
ATOM     20  C   UNL     1      -0.913   3.087  -2.078  0.00  0.00    +0.037 A 
ATOM     21  C   UNL     1      -1.750   3.260  -3.165  0.00  0.00    +0.025 A 
ATOM     22  C   UNL     1      -2.586   2.252  -3.517  0.00  0.00    +0.057 A 
ATOM     23  S   UNL     1      -2.197   1.006  -2.299  0.00  0.00    -0.062 S 
ATOM     24 BR   UNL     1      -3.836   2.183  -4.935  0.00  0.00    -0.043 Br
ENDBRANCH  16  19
ENDBRANCH   5  16
TORSDOF 3
