REMARK  Name = ZINC67266768
REMARK  3 active torsions:
REMARK  status: ('A' for Active; 'I' for Inactive)
REMARK    1  A    between atoms: C_4  and  C_7
REMARK    2  A    between atoms: C_17  and  C_19
REMARK    3  A    between atoms: C_19  and  N_20
REMARK                            x       y       z     vdW  Elec       q    Type
REMARK                         _______ _______ _______ _____ _____    ______ ____
ROOT
ATOM      1  C   UNL     1       3.711  -0.707  -0.038  0.00  0.00    +0.024 C 
ATOM      2  C   UNL     1       3.817  -1.598   1.203  0.00  0.00    +0.014 C 
ATOM      3  C   UNL     1       5.235  -2.160   1.328  0.00  0.00    +0.057 C 
ATOM      4  C   UNL     1       5.617  -2.820   0.011  0.00  0.00    +0.054 A 
ATOM      5  C   UNL     1       4.937  -2.530  -1.129  0.00  0.00    +0.015 A 
ATOM      6  S   UNL     1       5.756  -3.537  -2.333  0.00  0.00    -0.057 S 
ATOM      7  C   UNL     1       6.888  -4.238  -1.300  0.00  0.00    +0.165 A 
ATOM      8  N   UNL     1       6.604  -3.699  -0.135  0.00  0.00    -0.229 NA
ATOM      9  N   UNL     1       7.881  -5.162  -1.605  0.00  0.00    -0.263 N 
ATOM     10  C   UNL     1       8.702  -5.614  -0.636  0.00  0.00    +0.236 C 
ATOM     11  O   UNL     1       8.574  -5.215   0.502  0.00  0.00    -0.274 OA
ATOM     12  C   UNL     1       3.791  -1.589  -1.294  0.00  0.00    +0.052 C 
ATOM     13  H   UNL     1       7.984  -5.481  -2.515  0.00  0.00    +0.157 HD
ENDROOT
BRANCH   1  17
ATOM     14  C   UNL     1      -0.017   1.378   0.010  0.00  0.00    +0.000 A 
ATOM     15  C   UNL     1       1.171   2.086   0.002  0.00  0.00    +0.000 A 
ATOM     16  C   UNL     1       2.377   1.411  -0.013  0.00  0.00    +0.004 A 
ATOM     17  C   UNL     1       2.396   0.029  -0.020  0.00  0.00    -0.044 A 
ATOM     18  C   UNL     1       1.208  -0.679  -0.012  0.00  0.00    +0.004 A 
ATOM     19  C   UNL     1       0.002  -0.004   0.002  0.00  0.00    +0.000 A 
ENDBRANCH   1  17
BRANCH  10  20
ATOM     20  C   UNL     1       9.778  -6.615  -0.967  0.00  0.00    +0.205 C 
BRANCH  20  21
ATOM     21  N   UNL     1      10.528  -6.945   0.248  0.00  0.00    -0.277 N 
ATOM     22  C   UNL     1      11.705  -6.149   0.602  0.00  0.00    +0.111 C 
ATOM     23  C   UNL     1      11.873  -6.151   2.125  0.00  0.00    +0.038 C 
ATOM     24  C   UNL     1      11.943  -7.604   2.606  0.00  0.00    +0.107 C 
ATOM     25  N   UNL     1      10.754  -8.322   2.143  0.00  0.00    -0.299 N 
ATOM     26  C   UNL     1      10.120  -7.966   1.015  0.00  0.00    +0.303 C 
ATOM     27  O   UNL     1       9.140  -8.599   0.672  0.00  0.00    -0.253 OA
ATOM     28  H   UNL     1      10.415  -9.066   2.663  0.00  0.00    +0.150 HD
ENDBRANCH  20  21
ENDBRANCH  10  20
TORSDOF 3
