REMARK  Name = ZINC11505905
REMARK  10 active torsions:
REMARK  status: ('A' for Active; 'I' for Inactive)
REMARK    1  A    between atoms: C_1  and  C_2
REMARK    2  A    between atoms: C_2  and  O_3
REMARK    3  A    between atoms: O_3  and  C_4
REMARK    4  A    between atoms: C_4  and  C_6
REMARK    5  A    between atoms: C_7  and  C_21
REMARK    6  A    between atoms: C_12  and  C_14
REMARK    7  A    between atoms: C_21  and  O_22
REMARK    8  A    between atoms: O_22  and  C_23
REMARK    9  A    between atoms: C_23  and  C_25
REMARK   10  A    between atoms: C_28  and  C_31
REMARK                            x       y       z     vdW  Elec       q    Type
REMARK                         _______ _______ _______ _____ _____    ______ ____
ROOT
ATOM      1  C   UNL     1      -9.354   3.191   1.167  0.00  0.00    +0.081 C 
ATOM      2  C   UNL     1      -8.666   3.382   0.020  0.00  0.00    +0.061 C 
ATOM      3  N   UNL     1      -8.950   2.657  -1.101  0.00  0.00    -0.269 N 
ATOM      4  C   UNL     1      -9.899   1.714  -1.156  0.00  0.00    +0.304 C 
ATOM      5  O   UNL     1     -10.075   1.117  -2.200  0.00  0.00    -0.252 OA
ATOM      6  N   UNL     1     -10.669   1.410  -0.092  0.00  0.00    -0.288 N 
ATOM      7  C   UNL     1     -10.446   2.140   1.167  0.00  0.00    +0.144 C 
ATOM      8  H   UNL     1      -8.432   2.832  -1.903  0.00  0.00    +0.156 HD
ATOM      9  H   UNL     1     -11.353   0.726  -0.155  0.00  0.00    +0.151 HD
ENDROOT
BRANCH   7  10
ATOM     10  C   UNL     1     -11.739   2.814   1.548  0.00  0.00    -0.022 A 
ATOM     11  C   UNL     1     -12.446   3.536   0.604  0.00  0.00    +0.007 A 
ATOM     12  C   UNL     1     -13.635   4.150   0.952  0.00  0.00    +0.020 A 
ATOM     13  C   UNL     1     -14.111   4.051   2.247  0.00  0.00    +0.041 A 
ATOM     14  C   UNL     1     -13.399   3.334   3.192  0.00  0.00    +0.020 A 
ATOM     15  C   UNL     1     -12.214   2.716   2.842  0.00  0.00    +0.007 A 
ATOM     16 CL   UNL     1     -15.600   4.827   2.686  0.00  0.00    -0.084 Cl
ENDBRANCH   7  10
BRANCH   1  17
ATOM     17  C   UNL     1      -9.064   3.945   2.328  0.00  0.00    +0.339 C 
ATOM     18  O   UNL     1      -8.399   3.454   3.221  0.00  0.00    -0.245 OA
BRANCH  17  19
ATOM     19  O   UNL     1      -9.525   5.207   2.445  0.00  0.00    -0.462 OA
BRANCH  19  21
ATOM     20  C   UNL     1      -9.800   7.314   3.596  0.00  0.00    +0.048 C 
ATOM     21  C   UNL     1      -9.195   5.910   3.645  0.00  0.00    +0.229 C 
ENDBRANCH  19  21
ENDBRANCH  17  19
ENDBRANCH   1  17
BRANCH   2  22
ATOM     22  C   UNL     1      -7.572   4.418  -0.023  0.00  0.00    +0.283 C 
BRANCH  22  23
ATOM     23  O   UNL     1      -6.294   3.762  -0.238  0.00  0.00    -0.455 OA
BRANCH  23  24
ATOM     24  C   UNL     1      -5.205   4.552  -0.302  0.00  0.00    +0.340 C 
ATOM     25  O   UNL     1      -5.319   5.755  -0.183  0.00  0.00    -0.245 OA
BRANCH  24  26
ATOM     26  C   UNL     1      -3.869   3.954  -0.519  0.00  0.00    +0.059 A 
ATOM     27  C   UNL     1      -2.740   4.773  -0.586  0.00  0.00    +0.016 A 
ATOM     28  C   UNL     1      -1.496   4.216  -0.788  0.00  0.00    +0.014 A 
ATOM     29  C   UNL     1      -1.365   2.833  -0.925  0.00  0.00    +0.037 A 
ATOM     30  C   UNL     1      -2.493   2.015  -0.863  0.00  0.00    +0.014 A 
ATOM     31  C   UNL     1      -3.737   2.571  -0.657  0.00  0.00    +0.016 A 
BRANCH  29  32
ATOM     32  C   UNL     1      -0.028   2.235  -1.142  0.00  0.00    +0.242 C 
ATOM     33  O   UNL     1       0.954   2.948  -1.206  0.00  0.00    -0.270 OA
ATOM     34  N   UNL     1       0.099   0.900  -1.274  0.00  0.00    -0.325 N 
ATOM     35  H   UNL     1       0.975   0.508  -1.421  0.00  0.00    +0.145 HD
ATOM     36  H   UNL     1      -0.684   0.331  -1.224  0.00  0.00    +0.145 HD
ENDBRANCH  29  32
ENDBRANCH  24  26
ENDBRANCH  23  24
ENDBRANCH  22  23
ENDBRANCH   2  22
TORSDOF 9
