REMARK  Name = ZINC12203354
REMARK  6 active torsions:
REMARK  status: ('A' for Active; 'I' for Inactive)
REMARK    1  A    between atoms: C_1  and  C_2
REMARK    2  A    between atoms: N_5  and  C_21
REMARK    3  A    between atoms: C_6  and  N_7
REMARK    4  A    between atoms: C_8  and  C_10
REMARK    5  A    between atoms: C_21  and  C_23
REMARK    6  A    between atoms: C_21  and  C_24
REMARK                            x       y       z     vdW  Elec       q    Type
REMARK                         _______ _______ _______ _____ _____    ______ ____
ROOT
ATOM      1  N   UNL     1       3.022   2.693   2.285  0.00  0.00    -0.267 N 
ATOM      2  C   UNL     1       3.565   2.954   3.490  0.00  0.00    +0.259 C 
ATOM      3  O   UNL     1       3.982   2.046   4.178  0.00  0.00    -0.271 OA
ATOM      4  H   UNL     1       2.615   3.408   1.771  0.00  0.00    +0.156 HD
ENDROOT
BRANCH   2   5
ATOM      5  C   UNL     1       3.654   4.375   3.985  0.00  0.00    +0.263 C 
ATOM      6  C   UNL     1       2.250   4.924   4.330  0.00  0.00    +0.093 C 
ATOM      7  C   UNL     1       2.146   4.611   5.810  0.00  0.00    -0.000 A 
ATOM      8  C   UNL     1       1.073   4.571   6.674  0.00  0.00    +0.027 A 
ATOM      9  C   UNL     1       1.266   4.230   8.001  0.00  0.00    +0.041 A 
ATOM     10  C   UNL     1       2.539   3.929   8.454  0.00  0.00    +0.023 A 
ATOM     11  C   UNL     1       3.614   3.972   7.592  0.00  0.00    +0.047 A 
ATOM     12  C   UNL     1       3.428   4.320   6.256  0.00  0.00    +0.125 A 
ATOM     13  O   UNL     1       4.338   4.433   5.248  0.00  0.00    -0.479 OA
ATOM     14 CL   UNL     1      -0.082   4.180   9.094  0.00  0.00    -0.084 Cl
ENDBRANCH   2   5
BRANCH   1  20
ATOM     15  C   UNL     1       5.244   0.643   2.845  0.00  0.00    +0.049 C 
ATOM     16  C   UNL     1       4.009   0.460   2.001  0.00  0.00    +0.009 A 
ATOM     17  C   UNL     1       3.650  -0.700   1.309  0.00  0.00    +0.139 A 
ATOM     18  N   UNL     1       2.514  -0.479   0.697  0.00  0.00    -0.177 NA
ATOM     19  N   UNL     1       2.114   0.835   0.970  0.00  0.00    -0.247 N 
ATOM     20  C   UNL     1       3.045   1.394   1.776  0.00  0.00    +0.126 A 
BRANCH  19  21
ATOM     21  C   UNL     1       0.898   1.487   0.476  0.00  0.00    +0.109 C 
ATOM     22  C   UNL     1       0.850   1.385  -1.050  0.00  0.00    +0.033 C 
BRANCH  21  23
ATOM     23  C   UNL     1      -0.329   0.795   1.072  0.00  0.00    +0.013 C 
ATOM     24  C   UNL     1      -1.162   1.584   2.085  0.00  0.00    +0.006 C 
ATOM     25  C   UNL     1      -1.705   1.334   0.676  0.00  0.00    +0.006 C 
ENDBRANCH  21  23
ENDBRANCH  19  21
ENDBRANCH   1  20
TORSDOF 4
