REMARK  Name = ZINC40899354
REMARK  10 active torsions:
REMARK  status: ('A' for Active; 'I' for Inactive)
REMARK    1  A    between atoms: C_1  and  C_2
REMARK    2  A    between atoms: C_4  and  O_11
REMARK    3  A    between atoms: C_7  and  C_8
REMARK    4  A    between atoms: C_8  and  C_9
REMARK    5  A    between atoms: C_8  and  C_10
REMARK    6  A    between atoms: O_11  and  C_12
REMARK    7  A    between atoms: C_12  and  C_13
REMARK    8  A    between atoms: N_15  and  C_16
REMARK    9  A    between atoms: C_16  and  N_18
REMARK   10  A    between atoms: N_18  and  C_19
REMARK                            x       y       z     vdW  Elec       q    Type
REMARK                         _______ _______ _______ _____ _____    ______ ____
ROOT
ATOM      1  C   UNL     1       0.377  -4.683  -3.752  0.00  0.00    +0.256 C 
ATOM      2  O   UNL     1       0.497  -3.948  -4.709  0.00  0.00    -0.272 OA
ATOM      3  N   UNL     1       0.113  -5.991  -3.936  0.00  0.00    -0.265 N 
ATOM      4  H   UNL     1       0.017  -6.579  -3.171  0.00  0.00    +0.157 HD
ENDROOT
BRANCH   3   5
ATOM      5  C   UNL     1      -0.019  -6.483  -5.184  0.00  0.00    +0.141 C 
ATOM      6  S   UNL     1       0.149  -5.446  -6.535  0.00  0.00    -0.018 S 
BRANCH   5   7
ATOM      7  N   UNL     1      -0.284  -7.792  -5.368  0.00  0.00    -0.297 N 
ATOM      8  H   UNL     1      -0.461  -8.363  -4.604  0.00  0.00    +0.154 HD
BRANCH   7   9
ATOM      9  C   UNL     1      -0.303  -8.327  -6.661  0.00  0.00    +0.033 A 
ATOM     10  C   UNL     1       0.655  -7.939  -7.588  0.00  0.00    +0.024 A 
ATOM     11  C   UNL     1       0.633  -8.469  -8.864  0.00  0.00    +0.017 A 
ATOM     12  C   UNL     1      -0.342  -9.384  -9.218  0.00  0.00    +0.018 A 
ATOM     13  C   UNL     1      -1.298  -9.772  -8.296  0.00  0.00    +0.017 A 
ATOM     14  C   UNL     1      -1.277  -9.250  -7.017  0.00  0.00    +0.024 A 
ATOM     15 BR   UNL     1      -0.368 -10.107 -10.965  0.00  0.00    -0.050 Br
ENDBRANCH   7   9
ENDBRANCH   5   7
ENDBRANCH   3   5
BRANCH   1  16
ATOM     16  C   UNL     1       0.525  -4.132  -2.357  0.00  0.00    +0.324 C 
BRANCH  16  17
ATOM     17  O   UNL     1       0.801  -2.732  -2.424  0.00  0.00    -0.483 OA
BRANCH  17  21
ATOM     18  C   UNL     1       1.691   1.423  -0.023  0.00  0.00    +0.044 C 
ATOM     19  C   UNL     1       1.397  -0.055  -0.033  0.00  0.00    -0.044 A 
ATOM     20  C   UNL     1       1.233  -0.718  -1.235  0.00  0.00    +0.049 A 
ATOM     21  C   UNL     1       0.963  -2.078  -1.244  0.00  0.00    +0.121 A 
ATOM     22  C   UNL     1       0.859  -2.770  -0.046  0.00  0.00    +0.046 A 
ATOM     23  C   UNL     1       1.023  -2.103   1.153  0.00  0.00    +0.008 A 
ATOM     24  C   UNL     1       1.298  -0.748   1.159  0.00  0.00    -0.042 A 
BRANCH  24  25
ATOM     25  C   UNL     1       1.483  -0.024   2.467  0.00  0.00    +0.013 C 
ATOM     26  C   UNL     1       0.245  -0.228   3.343  0.00  0.00    +0.012 C 
ATOM     27  C   UNL     1       2.714  -0.579   3.187  0.00  0.00    +0.012 C 
ENDBRANCH  24  25
ENDBRANCH  17  21
ENDBRANCH  16  17
ENDBRANCH   1  16
TORSDOF 7
