REMARK  Name = ZINC08588728
REMARK  7 active torsions:
REMARK  status: ('A' for Active; 'I' for Inactive)
REMARK    1  A    between atoms: C_6  and  C_7
REMARK    2  A    between atoms: C_7  and  C_8
REMARK    3  A    between atoms: C_8  and  N_9
REMARK    4  A    between atoms: C_10  and  C_12
REMARK    5  A    between atoms: C_12  and  C_13
REMARK    6  A    between atoms: C_13  and  S_14
REMARK    7  A    between atoms: S_14  and  C_17
REMARK                            x       y       z     vdW  Elec       q    Type
REMARK                         _______ _______ _______ _____ _____    ______ ____
ROOT
ATOM      1  S   UNL     1      -6.901  -4.068  -4.004  0.00  0.00    -0.001 S 
ATOM      2  O   UNL     1      -6.685  -5.382  -3.508  0.00  0.00    -0.169 OA
ATOM      3  O   UNL     1      -7.948  -3.260  -3.484  0.00  0.00    -0.169 OA
ENDROOT
BRANCH   1   4
ATOM      4  C   UNL     1      -7.307  -4.290  -5.704  0.00  0.00    +0.110 A 
ATOM      5  C   UNL     1      -7.335  -5.564  -6.245  0.00  0.00    +0.076 A 
ATOM      6  C   UNL     1      -7.653  -5.739  -7.580  0.00  0.00    +0.144 A 
ATOM      7  C   UNL     1      -7.945  -4.631  -8.376  0.00  0.00    +0.077 A 
ATOM      8  C   UNL     1      -7.916  -3.359  -7.829  0.00  0.00    +0.049 A 
ATOM      9  C   UNL     1      -7.602  -3.192  -6.492  0.00  0.00    +0.068 A 
ATOM     10 CL   UNL     1      -7.572  -1.599  -5.802  0.00  0.00    -0.082 Cl
ATOM     11  N   UNL     1      -8.265  -4.824  -9.727  0.00  0.00    -0.280 N 
ATOM     12  C   UNL     1      -8.592  -6.063 -10.152  0.00  0.00    +0.255 C 
ATOM     13  O   UNL     1      -8.843  -6.259 -11.323  0.00  0.00    -0.272 OA
ATOM     14  C   UNL     1      -8.644  -7.203  -9.166  0.00  0.00    +0.325 C 
ATOM     15  O   UNL     1      -7.686  -6.983  -8.127  0.00  0.00    -0.481 OA
ATOM     16  H   UNL     1      -8.252  -4.078 -10.347  0.00  0.00    +0.155 HD
ENDBRANCH   1   4
BRANCH   1  17
ATOM     17  C   UNL     1      -5.342  -3.140  -4.014  0.00  0.00    +0.181 C 
BRANCH  17  18
ATOM     18  C   UNL     1      -4.889  -2.887  -2.575  0.00  0.00    +0.119 C 
BRANCH  18  20
ATOM     19  N   UNL     1      -3.004  -1.778  -1.420  0.00  0.00    -0.315 N 
ATOM     20  C   UNL     1      -3.595  -2.116  -2.584  0.00  0.00    +0.215 C 
ATOM     21  O   UNL     1      -3.084  -1.800  -3.637  0.00  0.00    -0.276 OA
ATOM     22  H   UNL     1      -3.413  -2.030  -0.578  0.00  0.00    +0.149 HD
BRANCH  19  23
ATOM     23  C   UNL     1      -1.745  -1.028  -1.429  0.00  0.00    +0.109 C 
BRANCH  23  24
ATOM     24  C   UNL     1      -1.293  -0.775   0.011  0.00  0.00    +0.054 C 
BRANCH  24  30
ATOM     25  C   UNL     1      -0.017   1.378   0.010  0.00  0.00    +0.005 A 
ATOM     26  C   UNL     1       1.171   2.086   0.002  0.00  0.00    +0.020 A 
ATOM     27  C   UNL     1       2.378   1.410  -0.013  0.00  0.00    +0.041 A 
ATOM     28  C   UNL     1       2.396   0.027  -0.021  0.00  0.00    +0.020 A 
ATOM     29  C   UNL     1       1.208  -0.679  -0.013  0.00  0.00    +0.005 A 
ATOM     30  C   UNL     1       0.002  -0.004   0.002  0.00  0.00    -0.046 A 
ATOM     31 CL   UNL     1       3.870   2.298  -0.023  0.00  0.00    -0.084 Cl
ENDBRANCH  24  30
ENDBRANCH  23  24
ENDBRANCH  19  23
ENDBRANCH  18  20
ENDBRANCH  17  18
ENDBRANCH   1  17
TORSDOF 7
