REMARK  Name = ZINC43726253
REMARK  4 active torsions:
REMARK  status: ('A' for Active; 'I' for Inactive)
REMARK    1  A    between atoms: C_4  and  C_7
REMARK    2  A    between atoms: C_7  and  C_9
REMARK    3  A    between atoms: C_11  and  C_34
REMARK    4  A    between atoms: C_34  and  C_36
REMARK                            x       y       z     vdW  Elec       q    Type
REMARK                         _______ _______ _______ _____ _____    ______ ____
ROOT
ATOM      1  C   UNL     1       3.793  -2.212   0.082  0.00  0.00    +0.157 C 
ATOM      2  C   UNL     1       3.331  -2.626   1.504  0.00  0.00    +0.110 C 
ATOM      3  C   UNL     1       4.660  -2.596   2.289  0.00  0.00    +0.108 C 
ATOM      4  C   UNL     1       4.598  -3.429   3.521  0.00  0.00    -0.008 A 
ATOM      5  C   UNL     1       4.353  -4.770   3.720  0.00  0.00    +0.006 A 
ATOM      6  C   UNL     1       4.370  -5.230   5.032  0.00  0.00    +0.000 A 
ATOM      7  C   UNL     1       4.620  -4.379   6.089  0.00  0.00    +0.002 A 
ATOM      8  C   UNL     1       4.868  -3.028   5.899  0.00  0.00    +0.023 A 
ATOM      9  C   UNL     1       4.855  -2.553   4.587  0.00  0.00    +0.038 A 
ATOM     10  N   UNL     1       5.068  -1.269   4.115  0.00  0.00    -0.284 N 
ATOM     11  C   UNL     1       4.972  -1.203   2.768  0.00  0.00    +0.231 C 
ATOM     12  O   UNL     1       5.111  -0.214   2.079  0.00  0.00    -0.274 OA
ATOM     13  C   UNL     1       5.682  -3.098   1.275  0.00  0.00    +0.117 C 
ATOM     14  N   UNL     1       5.160  -2.713  -0.059  0.00  0.00    -0.311 N 
ATOM     15  C   UNL     1       5.963  -2.784  -1.193  0.00  0.00    +0.038 A 
ATOM     16  C   UNL     1       5.490  -3.066  -2.455  0.00  0.00    +0.024 A 
ATOM     17  C   UNL     1       6.377  -3.131  -3.517  0.00  0.00    +0.002 A 
ATOM     18  C   UNL     1       7.729  -2.914  -3.314  0.00  0.00    +0.001 A 
ATOM     19  C   UNL     1       8.216  -2.622  -2.054  0.00  0.00    +0.010 A 
ATOM     20  C   UNL     1       7.337  -2.546  -0.980  0.00  0.00    -0.004 A 
ATOM     21  C   UNL     1       7.792  -2.199   0.381  0.00  0.00    +0.007 C 
ATOM     22  C   UNL     1       7.033  -2.462   1.458  0.00  0.00    -0.003 C 
ATOM     23  H   UNL     1       5.263  -0.507   4.683  0.00  0.00    +0.155 HD
ENDROOT
BRANCH   1  24
ATOM     24  C   UNL     1       3.773  -0.712  -0.055  0.00  0.00    +0.184 C 
ATOM     25  O   UNL     1       4.813  -0.089  -0.060  0.00  0.00    -0.290 OA
BRANCH  24  29
ATOM     26  C   UNL     1       0.075   1.335  -0.421  0.00  0.00    +0.000 A 
ATOM     27  C   UNL     1       1.253   2.054  -0.312  0.00  0.00    +0.001 A 
ATOM     28  C   UNL     1       2.458   1.397  -0.193  0.00  0.00    +0.011 A 
ATOM     29  C   UNL     1       2.490  -0.002  -0.181  0.00  0.00    +0.019 A 
ATOM     30  C   UNL     1       1.296  -0.722  -0.291  0.00  0.00    +0.011 A 
ATOM     31  C   UNL     1       0.098  -0.049  -0.411  0.00  0.00    +0.001 A 
ENDBRANCH  24  29
ENDBRANCH   1  24
BRANCH   2  32
ATOM     32  C   UNL     1       2.740  -4.013   1.496  0.00  0.00    +0.176 C 
ATOM     33  O   UNL     1       3.155  -4.845   0.716  0.00  0.00    -0.291 OA
BRANCH  32  34
ATOM     34  C   UNL     1       1.704  -4.343   2.397  0.00  0.00    +0.055 A 
ATOM     35  C   UNL     1       0.970  -5.521   2.496  0.00  0.00    +0.019 A 
ATOM     36  C   UNL     1       0.017  -5.547   3.483  0.00  0.00    +0.008 A 
ATOM     37  C   UNL     1      -0.143  -4.456   4.275  0.00  0.00    +0.046 A 
ATOM     38  S   UNL     1       1.000  -3.363   3.710  0.00  0.00    -0.094 S 
ENDBRANCH  32  34
ENDBRANCH   2  32
TORSDOF 4
