REMARK  Name = ZINC37002259
REMARK  9 active torsions:
REMARK  status: ('A' for Active; 'I' for Inactive)
REMARK    1  A    between atoms: C_1  and  C_2
REMARK    2  A    between atoms: C_2  and  C_3
REMARK    3  A    between atoms: C_2  and  C_4
REMARK    4  A    between atoms: C_4  and  C_6
REMARK    5  A    between atoms: N_8  and  C_9
REMARK    6  A    between atoms: C_15  and  C_17
REMARK    7  A    between atoms: C_17  and  C_18
REMARK    8  A    between atoms: C_17  and  C_19
REMARK    9  A    between atoms: C_17  and  C_20
REMARK                            x       y       z     vdW  Elec       q    Type
REMARK                         _______ _______ _______ _____ _____    ______ ____
ROOT
ATOM      1  C   UNL     1      -3.988  -1.113  -3.168  0.00  0.00    +0.077 C 
ATOM      2  C   UNL     1      -5.490  -0.938  -2.939  0.00  0.00    +0.022 C 
ATOM      3  C   UNL     1      -6.082  -2.247  -2.411  0.00  0.00    +0.002 C 
ATOM      4  C   UNL     1      -5.849  -3.361  -3.433  0.00  0.00    +0.000 C 
ATOM      5  C   UNL     1      -4.346  -3.536  -3.662  0.00  0.00    +0.006 C 
ATOM      6  C   UNL     1      -3.755  -2.228  -4.190  0.00  0.00    +0.015 C 
ENDROOT
BRANCH   1   9
ATOM      7  C   UNL     1      -2.869  -0.498  -1.093  0.00  0.00    +0.227 C 
ATOM      8  O   UNL     1      -2.984   0.666  -1.411  0.00  0.00    -0.275 OA
ATOM      9  N   UNL     1      -3.339  -1.467  -1.903  0.00  0.00    -0.311 N 
ATOM     10  H   UNL     1      -3.247  -2.399  -1.649  0.00  0.00    +0.149 HD
BRANCH   7  11
ATOM     11  C   UNL     1      -2.202  -0.862   0.208  0.00  0.00    +0.145 C 
ATOM     12 BR   UNL     1      -3.424  -0.484   1.700  0.00  0.00    -0.078 Br
BRANCH  11  14
ATOM     13  C   UNL     1      -1.286   1.443   0.506  0.00  0.00    +0.009 C 
ATOM     14  C   UNL     1      -0.924  -0.037   0.374  0.00  0.00    +0.005 C 
ATOM     15  C   UNL     1      -0.181  -0.494   1.632  0.00  0.00    +0.009 C 
ENDBRANCH  11  14
ENDBRANCH   7  11
ENDBRANCH   1   9
BRANCH   6  16
ATOM     16  C   UNL     1      -2.252  -2.403  -4.420  0.00  0.00    -0.033 C 
ATOM     17  C   UNL     1      -1.597  -2.921  -3.137  0.00  0.00    +0.011 C 
ATOM     18  C   UNL     1      -2.022  -3.408  -5.551  0.00  0.00    +0.011 C 
ATOM     19  C   UNL     1      -1.633  -1.057  -4.800  0.00  0.00    +0.011 C 
ENDBRANCH   6  16
TORSDOF 4
