REMARK  Name = ZINC43208900
REMARK  10 active torsions:
REMARK  status: ('A' for Active; 'I' for Inactive)
REMARK    1  A    between atoms: C_1  and  C_2
REMARK    2  A    between atoms: C_2  and  C_3
REMARK    3  A    between atoms: C_3  and  C_5
REMARK    4  A    between atoms: C_3  and  C_6
REMARK    5  A    between atoms: C_6  and  C_8
REMARK    6  A    between atoms: C_6  and  N_11
REMARK    7  A    between atoms: C_12  and  C_14
REMARK    8  A    between atoms: C_17  and  C_20
REMARK    9  A    between atoms: C_20  and  O_21
REMARK   10  A    between atoms: O_21  and  C_22
REMARK                            x       y       z     vdW  Elec       q    Type
REMARK                         _______ _______ _______ _____ _____    ______ ____
ROOT
ATOM      1  C   UNL     1       3.383  -4.389   2.984  0.00  0.00    +0.037 A 
ATOM      2  C   UNL     1       3.372  -3.904   4.292  0.00  0.00    +0.013 A 
ATOM      3  C   UNL     1       4.142  -4.517   5.259  0.00  0.00    +0.008 A 
ATOM      4  C   UNL     1       4.925  -5.611   4.933  0.00  0.00    -0.010 A 
ATOM      5  C   UNL     1       4.941  -6.096   3.637  0.00  0.00    +0.008 A 
ATOM      6  C   UNL     1       4.170  -5.496   2.663  0.00  0.00    +0.013 A 
ENDROOT
BRANCH   1   8
ATOM      7  N   UNL     1       1.801  -2.668   2.256  0.00  0.00    -0.300 N 
ATOM      8  C   UNL     1       2.560  -3.736   1.943  0.00  0.00    +0.245 C 
ATOM      9  O   UNL     1       2.567  -4.164   0.805  0.00  0.00    -0.270 OA
ATOM     10  H   UNL     1       1.794  -2.326   3.164  0.00  0.00    +0.150 HD
BRANCH   7  11
ATOM     11  C   UNL     1       0.985  -2.021   1.225  0.00  0.00    +0.162 C 
BRANCH  11  12
ATOM     12  C   UNL     1      -0.334  -2.741   1.103  0.00  0.00    +0.231 C 
ATOM     13  O   UNL     1      -0.727  -3.443   2.011  0.00  0.00    -0.274 OA
ATOM     14  N   UNL     1      -1.075  -2.604  -0.013  0.00  0.00    -0.328 N 
ATOM     15  H   UNL     1      -0.797  -1.987  -0.708  0.00  0.00    +0.145 HD
ATOM     16  H   UNL     1      -1.888  -3.123  -0.123  0.00  0.00    +0.145 HD
ENDBRANCH  11  12
BRANCH  11  17
ATOM     17  C   UNL     1       0.736  -0.562   1.612  0.00  0.00    +0.015 C 
ATOM     18  C   UNL     1       2.075   0.166   1.743  0.00  0.00    +0.010 C 
BRANCH  17  20
ATOM     19  C   UNL     1      -0.364   0.943   3.275  0.00  0.00    +0.004 C 
ATOM     20  C   UNL     1      -0.007  -0.509   2.949  0.00  0.00    +0.002 C 
ENDBRANCH  17  20
ENDBRANCH  11  17
ENDBRANCH   7  11
ENDBRANCH   1   8
BRANCH   4  21
ATOM     21  C   UNL     1       5.764  -6.275   5.993  0.00  0.00    +0.264 C 
BRANCH  21  22
ATOM     22  O   UNL     1       5.003  -7.308   6.625  0.00  0.00    -0.485 OA
BRANCH  22  23
ATOM     23  C   UNL     1       5.618  -8.011   7.612  0.00  0.00    +0.147 A 
ATOM     24  C   UNL     1       6.904  -7.716   7.966  0.00  0.00    +0.049 A 
ATOM     25  C   UNL     1       7.551  -8.425   8.974  0.00  0.00    +0.024 A 
ATOM     26  C   UNL     1       6.918  -9.434   9.637  0.00  0.00    +0.050 A 
ATOM     27  C   UNL     1       5.595  -9.766   9.301  0.00  0.00    +0.022 A 
ATOM     28  C   UNL     1       4.929  -9.044   8.280  0.00  0.00    +0.114 A 
ATOM     29  N   UNL     1       3.670  -9.353   7.959  0.00  0.00    -0.251 NA
ATOM     30  C   UNL     1       3.025 -10.313   8.577  0.00  0.00    +0.111 A 
ATOM     31  C   UNL     1       3.619 -11.058   9.594  0.00  0.00    +0.020 A 
ATOM     32  C   UNL     1       4.909 -10.802   9.962  0.00  0.00    +0.013 A 
ATOM     33 CL   UNL     1       7.744 -10.306  10.891  0.00  0.00    -0.083 Cl
ENDBRANCH  22  23
ENDBRANCH  21  22
ENDBRANCH   4  21
TORSDOF 8
