REMARK  Name = ZINC35867856
REMARK  4 active torsions:
REMARK  status: ('A' for Active; 'I' for Inactive)
REMARK    1  A    between atoms: C_1  and  C_2
REMARK    2  A    between atoms: C_2  and  C_3
REMARK    3  A    between atoms: N_19  and  S_22
REMARK    4  A    between atoms: S_22  and  C_25
REMARK                            x       y       z     vdW  Elec       q    Type
REMARK                         _______ _______ _______ _____ _____    ______ ____
ROOT
ATOM      1  C   UNL     1       0.586  -1.971   1.989  0.00  0.00    +0.132 A 
ATOM      2  N   UNL     1       1.897  -2.114   1.902  0.00  0.00    -0.217 NA
ATOM      3  C   UNL     1       2.734  -1.133   2.199  0.00  0.00    +0.133 A 
ATOM      4  C   UNL     1       2.209   0.119   2.626  0.00  0.00    +0.051 A 
ATOM      5  C   UNL     1       2.932   1.335   3.005  0.00  0.00    -0.025 A 
ATOM      6  C   UNL     1       2.189   2.397   3.376  0.00  0.00    -0.004 A 
ATOM      7  S   UNL     1       0.507   1.854   3.246  0.00  0.00    -0.073 S 
ATOM      8  C   UNL     1       0.804   0.195   2.693  0.00  0.00    +0.114 A 
ATOM      9  N   UNL     1       0.042  -0.833   2.373  0.00  0.00    -0.225 NA
ATOM     10  C   UNL     1       2.684   3.744   3.806  0.00  0.00    +0.043 C 
ATOM     11  C   UNL     1       4.182   3.632   4.123  0.00  0.00    +0.005 C 
ATOM     12  C   UNL     1       4.872   2.888   2.975  0.00  0.00    +0.005 C 
ATOM     13  C   UNL     1       4.456   1.416   2.988  0.00  0.00    +0.037 C 
ATOM     14  N   UNL     1       4.100  -1.321   2.095  0.00  0.00    -0.312 N 
ATOM     15  C   UNL     1       4.893  -1.707   3.270  0.00  0.00    +0.123 C 
ATOM     16  C   UNL     1       5.665  -2.991   2.941  0.00  0.00    +0.128 C 
ATOM     17  N   UNL     1       6.350  -2.810   1.653  0.00  0.00    -0.174 NA
ATOM     18  C   UNL     1       5.556  -2.424   0.477  0.00  0.00    +0.128 C 
ATOM     19  C   UNL     1       4.784  -1.146   0.806  0.00  0.00    +0.123 C 
ENDROOT
BRANCH  17  20
ATOM     20  S   UNL     1       7.985  -3.036   1.529  0.00  0.00    +0.061 S 
ATOM     21  O   UNL     1       8.415  -2.281   0.404  0.00  0.00    -0.153 OA
ATOM     22  O   UNL     1       8.523  -2.838   2.829  0.00  0.00    -0.153 OA
BRANCH  20  23
ATOM     23  C   UNL     1       8.248  -4.731   1.127  0.00  0.00    +0.106 A 
ATOM     24  C   UNL     1       8.397  -5.665   2.136  0.00  0.00    +0.029 A 
ATOM     25  C   UNL     1       8.602  -6.995   1.821  0.00  0.00    +0.017 A 
ATOM     26  C   UNL     1       8.659  -7.392   0.497  0.00  0.00    +0.018 A 
ATOM     27  C   UNL     1       8.510  -6.457  -0.511  0.00  0.00    +0.017 A 
ATOM     28  C   UNL     1       8.299  -5.128  -0.196  0.00  0.00    +0.029 A 
ATOM     29 BR   UNL     1       8.941  -9.211   0.067  0.00  0.00    -0.050 Br
ENDBRANCH  20  23
ENDBRANCH  17  20
BRANCH   1  31
ATOM     30  C   UNL     1      -0.645  -3.080   0.144  0.00  0.00    +0.012 C 
ATOM     31  C   UNL     1      -0.306  -3.133   1.635  0.00  0.00    +0.073 C 
ENDBRANCH   1  31
TORSDOF 3
