REMARK  Name = ZINC39992761
REMARK  10 active torsions:
REMARK  status: ('A' for Active; 'I' for Inactive)
REMARK    1  A    between atoms: C_1  and  C_2
REMARK    2  A    between atoms: C_2  and  N_3
REMARK    3  A    between atoms: C_4  and  C_6
REMARK    4  A    between atoms: C_10  and  N_11
REMARK    5  A    between atoms: C_12  and  C_14
REMARK    6  A    between atoms: C_14  and  C_30
REMARK    7  A    between atoms: C_15  and  C_16
REMARK    8  A    between atoms: C_19  and  C_21
REMARK    9  A    between atoms: C_24  and  C_27
REMARK   10  A    between atoms: C_27  and  C_29
REMARK                            x       y       z     vdW  Elec       q    Type
REMARK                         _______ _______ _______ _____ _____    ______ ____
ROOT
ATOM      1  N   UNL     1      -3.171  -2.442   2.499  0.00  0.00    -0.275 N 
ATOM      2  C   UNL     1      -3.963  -2.744   3.547  0.00  0.00    +0.259 C 
ATOM      3  O   UNL     1      -5.091  -3.158   3.358  0.00  0.00    -0.269 OA
ATOM      4  H   UNL     1      -2.272  -2.112   2.650  0.00  0.00    +0.156 HD
ENDROOT
BRANCH   1   9
ATOM      5  C   UNL     1      -2.976  -2.347   0.018  0.00  0.00    +0.069 A 
ATOM      6  C   UNL     1      -3.696  -2.607  -1.216  0.00  0.00    -0.023 A 
ATOM      7  C   UNL     1      -4.951  -3.071  -1.036  0.00  0.00    -0.004 A 
ATOM      8  S   UNL     1      -5.152  -3.153   0.719  0.00  0.00    -0.077 S 
ATOM      9  C   UNL     1      -3.642  -2.604   1.206  0.00  0.00    +0.085 A 
ATOM     10  C   UNL     1      -5.940  -3.429  -2.103  0.00  0.00    +0.043 C 
ATOM     11  C   UNL     1      -5.450  -2.836  -3.433  0.00  0.00    +0.005 C 
ATOM     12  C   UNL     1      -3.969  -3.181  -3.614  0.00  0.00    +0.005 C 
ATOM     13  C   UNL     1      -3.124  -2.392  -2.610  0.00  0.00    +0.037 C 
BRANCH   5  15
ATOM     14  N   UNL     1      -1.372  -0.511   0.012  0.00  0.00    -0.312 N 
ATOM     15  C   UNL     1      -1.601  -1.839   0.007  0.00  0.00    +0.247 C 
ATOM     16  O   UNL     1      -0.665  -2.618  -0.006  0.00  0.00    -0.270 OA
ATOM     17  H   UNL     1      -2.118   0.109   0.023  0.00  0.00    +0.149 HD
BRANCH  14  19
ATOM     18  C   UNL     1      -0.019   1.526   0.010  0.00  0.00    +0.024 C 
ATOM     19  C   UNL     1       0.002  -0.004   0.002  0.00  0.00    +0.101 C 
ENDBRANCH  14  19
ENDBRANCH   5  15
ENDBRANCH   1   9
BRANCH   2  20
ATOM     20  C   UNL     1      -3.463  -2.572   4.917  0.00  0.00    +0.117 C 
ATOM     21  C   UNL     1      -4.278  -2.883   5.996  0.00  0.00    +0.070 C 
BRANCH  21  22
ATOM     22  C   UNL     1      -3.799  -2.719   7.308  0.00  0.00    +0.130 A 
ATOM     23  C   UNL     1      -4.503  -2.995   8.471  0.00  0.00    +0.050 A 
ATOM     24  C   UNL     1      -3.657  -2.691   9.536  0.00  0.00    +0.050 A 
ATOM     25  C   UNL     1      -2.471  -2.241   8.994  0.00  0.00    +0.136 A 
ATOM     26  O   UNL     1      -2.574  -2.271   7.654  0.00  0.00    -0.455 OA
BRANCH  25  27
ATOM     27  C   UNL     1      -1.287  -1.806   9.756  0.00  0.00    +0.017 A 
ATOM     28  C   UNL     1      -1.306  -1.835  11.155  0.00  0.00    +0.012 A 
ATOM     29  C   UNL     1      -0.209  -1.432  11.861  0.00  0.00    +0.012 A 
ATOM     30  C   UNL     1       0.935  -0.990  11.186  0.00  0.00    +0.017 A 
ATOM     31  C   UNL     1       0.954  -0.962   9.786  0.00  0.00    +0.012 A 
ATOM     32  C   UNL     1      -0.141  -1.370   9.080  0.00  0.00    +0.012 A 
BRANCH  30  33
ATOM     33  C   UNL     1       2.116  -0.556  11.946  0.00  0.00    +0.160 C 
ATOM     34  O   UNL     1       2.100  -0.580  13.159  0.00  0.00    -0.292 OA
ATOM     35  C   UNL     1       3.348  -0.081  11.219  0.00  0.00    +0.091 C 
ENDBRANCH  30  33
ENDBRANCH  25  27
ENDBRANCH  21  22
BRANCH  20  36
ATOM     36  C   UNL     1      -2.135  -2.085   5.140  0.00  0.00    +0.104 C 
ATOM     37  N   UNL     1      -1.082  -1.698   5.316  0.00  0.00    -0.191 NA
ENDBRANCH  20  36
ENDBRANCH   2  20
TORSDOF 8
