REMARK  Name = ZINC06204333
REMARK  9 active torsions:
REMARK  status: ('A' for Active; 'I' for Inactive)
REMARK    1  A    between atoms: C_1  and  C_2
REMARK    2  A    between atoms: C_2  and  C_3
REMARK    3  A    between atoms: C_3  and  C_4
REMARK    4  A    between atoms: C_4  and  N_5
REMARK    5  A    between atoms: C_15  and  S_16
REMARK    6  A    between atoms: S_16  and  C_17
REMARK    7  A    between atoms: C_17  and  C_18
REMARK    8  A    between atoms: N_20  and  C_21
REMARK    9  A    between atoms: C_22  and  C_26
REMARK                            x       y       z     vdW  Elec       q    Type
REMARK                         _______ _______ _______ _____ _____    ______ ____
ROOT
ATOM      1  S   UNL     1      -2.656  -2.897   0.014  0.00  0.00    -0.078 S 
ENDROOT
BRANCH   1  12
ATOM      2  N   UNL     1       0.036  -2.766  -0.012  0.00  0.00    -0.287 N 
ATOM      3  C   UNL     1       1.239  -2.146  -0.021  0.00  0.00    +0.262 A 
ATOM      4  O   UNL     1       2.277  -2.782  -0.034  0.00  0.00    -0.267 OA
ATOM      5  C   UNL     1       1.245  -0.677  -0.013  0.00  0.00    +0.065 A 
ATOM      6  C   UNL     1       2.432   0.055  -0.021  0.00  0.00    +0.015 A 
ATOM      7  C   UNL     1       2.381   1.422  -0.013  0.00  0.00    +0.001 A 
ATOM      8  C   UNL     1       1.161   2.086   0.002  0.00  0.00    +0.002 A 
ATOM      9  C   UNL     1      -0.017   1.394   0.010  0.00  0.00    +0.028 A 
ATOM     10  C   UNL     1       0.002  -0.004   0.002  0.00  0.00    +0.079 A 
ATOM     11  N   UNL     1      -1.136  -0.726   0.009  0.00  0.00    -0.223 NA
ATOM     12  C   UNL     1      -1.119  -2.036   0.003  0.00  0.00    +0.173 A 
BRANCH   2  13
ATOM     13  C   UNL     1      -0.028  -4.229  -0.019  0.00  0.00    +0.127 C 
BRANCH  13  14
ATOM     14  C   UNL     1      -0.037  -4.746   1.421  0.00  0.00    +0.021 C 
BRANCH  14  16
ATOM     15  C   UNL     1      -0.112  -6.791   2.854  0.00  0.00    +0.004 C 
ATOM     16  C   UNL     1      -0.104  -6.275   1.414  0.00  0.00    -0.002 C 
ENDBRANCH  14  16
ENDBRANCH  13  14
ENDBRANCH   2  13
ENDBRANCH   1  12
BRANCH   1  17
ATOM     17  C   UNL     1      -3.801  -1.496   0.033  0.00  0.00    +0.173 C 
BRANCH  17  18
ATOM     18  C   UNL     1      -5.219  -2.005   0.045  0.00  0.00    +0.228 C 
ATOM     19  O   UNL     1      -5.434  -3.199   0.041  0.00  0.00    -0.275 OA
ATOM     20  N   UNL     1      -6.248  -1.135   0.060  0.00  0.00    -0.279 N 
ATOM     21  H   UNL     1      -6.076  -0.180   0.063  0.00  0.00    +0.155 HD
BRANCH  20  22
ATOM     22  C   UNL     1      -7.553  -1.604   0.070  0.00  0.00    +0.084 A 
ATOM     23  C   UNL     1      -8.733  -0.872   0.092  0.00  0.00    +0.065 A 
ATOM     24  C   UNL     1      -9.965  -1.625   0.095  0.00  0.00    +0.022 A 
ATOM     25  C   UNL     1      -9.864  -2.966   0.088  0.00  0.00    +0.048 A 
ATOM     26  S   UNL     1      -8.106  -3.245   0.068  0.00  0.00    -0.081 S 
BRANCH  23  27
ATOM     27  C   UNL     1      -8.729   0.595   0.106  0.00  0.00    +0.244 C 
ATOM     28  O   UNL     1      -7.673   1.200   0.100  0.00  0.00    -0.270 OA
ATOM     29  N   UNL     1      -9.893   1.272   0.127  0.00  0.00    -0.325 N 
ATOM     30  H   UNL     1     -10.735   0.790   0.132  0.00  0.00    +0.145 HD
ATOM     31  H   UNL     1      -9.890   2.242   0.136  0.00  0.00    +0.145 HD
ENDBRANCH  23  27
ENDBRANCH  20  22
ENDBRANCH  17  18
ENDBRANCH   1  17
TORSDOF 8
