REMARK  Name = ZINC59309966
REMARK  4 active torsions:
REMARK  status: ('A' for Active; 'I' for Inactive)
REMARK    1  A    between atoms: N_9  and  C_10
REMARK    2  A    between atoms: N_16  and  C_17
REMARK    3  A    between atoms: C_17  and  C_19
REMARK    4  A    between atoms: C_22  and  N_25
REMARK                            x       y       z     vdW  Elec       q    Type
REMARK                         _______ _______ _______ _____ _____    ______ ____
ROOT
ATOM      1  C   UNL     1      -0.015   1.377   0.027  0.00  0.00    +0.002 A 
ATOM      2  C   UNL     1       1.172   2.091   0.030  0.00  0.00    +0.002 A 
ATOM      3  C   UNL     1       2.383   1.429   0.015  0.00  0.00    +0.028 A 
ATOM      4  C   UNL     1       2.412   0.042  -0.002  0.00  0.00    +0.068 A 
ATOM      5  C   UNL     1       1.216  -0.678  -0.005  0.00  0.00    +0.066 A 
ATOM      6  C   UNL     1       0.003  -0.003   0.009  0.00  0.00    +0.028 A 
ATOM      7  N   UNL     1       1.549  -2.029  -0.024  0.00  0.00    -0.326 N 
ATOM      8  C   UNL     1       2.906  -2.133  -0.032  0.00  0.00    +0.202 A 
ATOM      9  N   UNL     1       3.449  -0.885  -0.019  0.00  0.00    -0.309 N 
ATOM     10  N   UNL     1       3.590  -3.270  -0.049  0.00  0.00    -0.142 NA
ATOM     11  H   UNL     1       0.923  -2.769  -0.029  0.00  0.00    +0.169 HD
ENDROOT
BRANCH   9  12
ATOM     12  C   UNL     1       4.880  -0.573  -0.023  0.00  0.00    +0.091 C 
ATOM     13  C   UNL     1       5.526  -1.153  -1.283  0.00  0.00    +0.025 C 
ATOM     14  C   UNL     1       7.021  -0.826  -1.287  0.00  0.00    +0.002 C 
ATOM     15  C   UNL     1       7.680  -1.437  -0.049  0.00  0.00    +0.000 C 
ATOM     16  C   UNL     1       7.034  -0.856   1.211  0.00  0.00    +0.002 C 
ATOM     17  C   UNL     1       5.540  -1.183   1.215  0.00  0.00    +0.025 C 
ENDBRANCH   9  12
BRANCH  10  18
ATOM     18  C   UNL     1       2.947  -4.439   0.052  0.00  0.00    +0.270 C 
ATOM     19  O   UNL     1       1.729  -4.466   0.063  0.00  0.00    -0.268 OA
BRANCH  18  20
ATOM     20  C   UNL     1       3.716  -5.699   0.149  0.00  0.00    +0.039 A 
ATOM     21  C   UNL     1       5.112  -5.670   0.142  0.00  0.00    +0.015 A 
ATOM     22  C   UNL     1       5.824  -6.844   0.233  0.00  0.00    +0.025 A 
ATOM     23  C   UNL     1       5.155  -8.060   0.333  0.00  0.00    +0.051 A 
ATOM     24  C   UNL     1       3.763  -8.092   0.340  0.00  0.00    +0.025 A 
ATOM     25  C   UNL     1       3.046  -6.920   0.255  0.00  0.00    +0.015 A 
BRANCH  23  26
ATOM     26  N   UNL     1       5.878  -9.245   0.425  0.00  0.00    -0.207 N 
ATOM     27  C   UNL     1       7.250  -9.488  -0.054  0.00  0.00    +0.133 C 
ATOM     28  C   UNL     1       7.948 -10.560   0.803  0.00  0.00    +0.045 C 
ATOM     29  C   UNL     1       6.897 -11.700   0.959  0.00  0.00    +0.190 C 
ATOM     30  S   UNL     1       5.368 -10.688   1.109  0.00  0.00    +0.046 S 
ATOM     31  O   UNL     1       5.094 -10.387   2.470  0.00  0.00    -0.155 OA
ATOM     32  O   UNL     1       4.354 -11.181   0.245  0.00  0.00    -0.155 OA
ENDBRANCH  23  26
ENDBRANCH  18  20
ENDBRANCH  10  18
TORSDOF 4
