REMARK  Name = ZINC14479341
REMARK  10 active torsions:
REMARK  status: ('A' for Active; 'I' for Inactive)
REMARK    1  A    between atoms: C_1  and  C_2
REMARK    2  A    between atoms: C_4  and  C_38
REMARK    3  A    between atoms: C_6  and  N_8
REMARK    4  A    between atoms: N_8  and  S_9
REMARK    5  A    between atoms: S_9  and  C_12
REMARK    6  A    between atoms: C_25  and  C_28
REMARK    7  A    between atoms: C_31  and  O_36
REMARK    8  A    between atoms: C_32  and  O_34
REMARK    9  A    between atoms: O_34  and  C_35
REMARK   10  A    between atoms: O_36  and  C_37
REMARK                            x       y       z     vdW  Elec       q    Type
REMARK                         _______ _______ _______ _____ _____    ______ ____
ROOT
ATOM      1  C   UNL     1      -6.845   5.824   0.554  0.00  0.00    +0.109 A 
ATOM      2  C   UNL     1      -5.859   5.264   1.347  0.00  0.00    +0.030 A 
ATOM      3  C   UNL     1      -4.563   5.734   1.261  0.00  0.00    +0.025 A 
ATOM      4  C   UNL     1      -4.254   6.763   0.381  0.00  0.00    +0.031 A 
ATOM      5  C   UNL     1      -5.238   7.325  -0.418  0.00  0.00    -0.018 A 
ATOM      6  C   UNL     1      -6.538   6.846  -0.321  0.00  0.00    +0.034 A 
ATOM      7  C   UNL     1      -4.951   8.428  -1.386  0.00  0.00    +0.049 C 
ATOM      8  C   UNL     1      -5.457   9.756  -0.876  0.00  0.00    -0.023 C 
ATOM      9  C   UNL     1      -4.635  10.718  -1.218  0.00  0.00    -0.030 C 
ATOM     10  C   UNL     1      -3.468  10.161  -2.011  0.00  0.00    +0.033 C 
ATOM     11  C   UNL     1      -3.443   8.658  -1.606  0.00  0.00    +0.029 C 
ATOM     12  C   UNL     1      -2.700   8.557  -0.271  0.00  0.00    +0.105 C 
ATOM     13  N   UNL     1      -2.937   7.230   0.306  0.00  0.00    -0.336 N 
ATOM     14  H   UNL     1      -2.199   6.689   0.629  0.00  0.00    +0.147 HD
ENDROOT
BRANCH  12  15
ATOM     15  C   UNL     1      -1.223   8.752  -0.499  0.00  0.00    -0.023 A 
ATOM     16  C   UNL     1      -0.457   7.707  -0.983  0.00  0.00    +0.009 A 
ATOM     17  C   UNL     1       0.899   7.879  -1.189  0.00  0.00    +0.050 A 
ATOM     18  C   UNL     1       1.492   9.103  -0.921  0.00  0.00    +0.162 A 
ATOM     19  C   UNL     1       0.719  10.155  -0.440  0.00  0.00    +0.162 A 
ATOM     20  C   UNL     1      -0.638   9.975  -0.230  0.00  0.00    +0.055 A 
BRANCH  19  21
ATOM     21  O   UNL     1       1.296  11.358  -0.176  0.00  0.00    -0.491 OA
ATOM     22  C   UNL     1       0.442  12.393   0.317  0.00  0.00    +0.277 C 
ENDBRANCH  19  21
BRANCH  18  23
ATOM     23  O   UNL     1       2.825   9.275  -1.129  0.00  0.00    -0.491 OA
ATOM     24  C   UNL     1       3.554   8.151  -1.625  0.00  0.00    +0.277 C 
ENDBRANCH  18  23
ENDBRANCH  12  15
BRANCH   1  25
ATOM     25  S   UNL     1      -8.500   5.229   0.663  0.00  0.00    +0.072 S 
ATOM     26  O   UNL     1      -9.088   5.431  -0.615  0.00  0.00    -0.150 OA
ATOM     27  O   UNL     1      -8.432   3.950   1.278  0.00  0.00    -0.150 OA
BRANCH  25  28
ATOM     28  N   UNL     1      -9.307   6.219   1.717  0.00  0.00    -0.216 N 
ATOM     29  H   UNL     1     -10.060   6.746   1.408  0.00  0.00    +0.174 HD
BRANCH  28  35
ATOM     30  C   UNL     1      -9.121   4.215   6.201  0.00  0.00    +0.044 C 
ATOM     31  C   UNL     1      -8.800   5.338   5.249  0.00  0.00    -0.048 A 
ATOM     32  C   UNL     1      -8.104   6.446   5.697  0.00  0.00    +0.006 A 
ATOM     33  C   UNL     1      -7.807   7.479   4.827  0.00  0.00    -0.048 A 
ATOM     34  C   UNL     1      -8.205   7.406   3.506  0.00  0.00    +0.028 A 
ATOM     35  C   UNL     1      -8.903   6.295   3.052  0.00  0.00    +0.049 A 
ATOM     36  C   UNL     1      -9.204   5.261   3.930  0.00  0.00    +0.028 A 
ATOM     37  C   UNL     1      -7.050   8.684   5.320  0.00  0.00    +0.044 C 
ENDBRANCH  28  35
ENDBRANCH  25  28
ENDBRANCH   1  25
TORSDOF 6
