REMARK  Name = ZINC05026572
REMARK  5 active torsions:
REMARK  status: ('A' for Active; 'I' for Inactive)
REMARK    1  A    between atoms: C_9  and  S_11
REMARK    2  A    between atoms: S_11  and  C_12
REMARK    3  A    between atoms: C_12  and  C_14
REMARK    4  A    between atoms: C_12  and  N_18
REMARK    5  A    between atoms: C_19  and  C_21
REMARK                            x       y       z     vdW  Elec       q    Type
REMARK                         _______ _______ _______ _____ _____    ______ ____
ROOT
ATOM      1  S   UNL     1      -3.186   1.179   1.672  0.00  0.00    -0.061 S 
ENDROOT
BRANCH   1  10
ATOM      2  C   UNL     1      -7.216  -3.644   1.917  0.00  0.00    +0.002 A 
ATOM      3  C   UNL     1      -6.772  -3.857   0.620  0.00  0.00    +0.002 A 
ATOM      4  C   UNL     1      -5.829  -3.025   0.059  0.00  0.00    +0.030 A 
ATOM      5  C   UNL     1      -5.316  -1.957   0.800  0.00  0.00    +0.090 A 
ATOM      6  C   UNL     1      -5.770  -1.746   2.113  0.00  0.00    +0.067 A 
ATOM      7  C   UNL     1      -6.720  -2.594   2.662  0.00  0.00    +0.028 A 
ATOM      8  N   UNL     1      -5.087  -0.636   2.583  0.00  0.00    -0.333 N 
ATOM      9  H   UNL     1      -5.176  -0.225   3.490  0.00  0.00    +0.168 HD
ATOM     10  C   UNL     1      -4.268  -0.209   1.577  0.00  0.00    +0.169 A 
ATOM     11  N   UNL     1      -4.402  -0.988   0.532  0.00  0.00    -0.222 NA
ENDBRANCH   1  10
BRANCH   1  12
ATOM     12  C   UNL     1      -2.449   1.117   0.020  0.00  0.00    +0.190 C 
BRANCH  12  13
ATOM     13  C   UNL     1      -3.414   1.738  -0.992  0.00  0.00    +0.218 C 
ATOM     14 CL   UNL     1      -2.680   1.676  -2.638  0.00  0.00    -0.080 Cl
ATOM     15 CL   UNL     1      -4.963   0.815  -0.990  0.00  0.00    -0.080 Cl
ATOM     16 CL   UNL     1      -3.736   3.454  -0.541  0.00  0.00    -0.080 Cl
ENDBRANCH  12  13
BRANCH  12  17
ATOM     17  N   UNL     1      -1.191   1.867   0.018  0.00  0.00    -0.297 N 
ATOM     18  C   UNL     1      -0.014   1.209   0.009  0.00  0.00    +0.245 C 
ATOM     19  O   UNL     1       0.002  -0.004   0.002  0.00  0.00    -0.273 OA
ATOM     20  H   UNL     1      -1.204   2.837   0.023  0.00  0.00    +0.150 HD
BRANCH  18  21
ATOM     21  C   UNL     1       1.280   1.980   0.001  0.00  0.00    +0.308 C 
ATOM     22  F   UNL     1       2.356   1.085  -0.015  0.00  0.00    -0.239 F 
ENDBRANCH  18  21
ENDBRANCH  12  17
ENDBRANCH   1  12
TORSDOF 5
