REMARK  Name = ZINC36557241
REMARK  11 active torsions:
REMARK  status: ('A' for Active; 'I' for Inactive)
REMARK    1  A    between atoms: C_1  and  C_2
REMARK    2  A    between atoms: C_2  and  N_3
REMARK    3  A    between atoms: N_3  and  C_4
REMARK    4  A    between atoms: N_3  and  S_10
REMARK    5  A    between atoms: S_10  and  C_13
REMARK    6  A    between atoms: C_26  and  C_29
REMARK    7  A    between atoms: C_32  and  O_37
REMARK    8  A    between atoms: C_33  and  O_35
REMARK    9  A    between atoms: O_35  and  C_36
REMARK   10  A    between atoms: O_37  and  C_38
REMARK   11  A    between atoms: C_38  and  C_40
REMARK                            x       y       z     vdW  Elec       q    Type
REMARK                         _______ _______ _______ _____ _____    ______ ____
ROOT
ATOM      1  C   UNL     1       3.517  -0.333   2.163  0.00  0.00    +0.109 A 
ATOM      2  C   UNL     1       3.637   0.564   1.117  0.00  0.00    +0.030 A 
ATOM      3  C   UNL     1       4.388   1.711   1.270  0.00  0.00    +0.025 A 
ATOM      4  C   UNL     1       5.027   1.976   2.475  0.00  0.00    +0.031 A 
ATOM      5  C   UNL     1       4.891   1.070   3.533  0.00  0.00    -0.018 A 
ATOM      6  C   UNL     1       4.141  -0.074   3.370  0.00  0.00    +0.034 A 
ATOM      7  C   UNL     1       5.554   1.409   4.811  0.00  0.00    +0.049 C 
ATOM      8  C   UNL     1       5.992   0.363   5.770  0.00  0.00    -0.023 C 
ATOM      9  C   UNL     1       7.068   0.800   6.413  0.00  0.00    -0.030 C 
ATOM     10  C   UNL     1       7.458   2.186   5.897  0.00  0.00    +0.033 C 
ATOM     11  C   UNL     1       6.890   2.139   4.476  0.00  0.00    +0.029 C 
ATOM     12  C   UNL     1       6.483   3.469   3.869  0.00  0.00    +0.105 C 
ATOM     13  N   UNL     1       5.801   3.136   2.599  0.00  0.00    -0.336 N 
ATOM     14  H   UNL     1       5.891   3.731   1.839  0.00  0.00    +0.147 HD
ENDROOT
BRANCH  12  15
ATOM     15  C   UNL     1       5.542   4.198   4.793  0.00  0.00    -0.023 A 
ATOM     16  C   UNL     1       6.046   5.051   5.758  0.00  0.00    +0.009 A 
ATOM     17  C   UNL     1       5.187   5.722   6.608  0.00  0.00    +0.050 A 
ATOM     18  C   UNL     1       3.818   5.541   6.494  0.00  0.00    +0.173 A 
ATOM     19  C   UNL     1       3.311   4.683   5.523  0.00  0.00    +0.163 A 
ATOM     20  C   UNL     1       4.177   4.017   4.670  0.00  0.00    +0.055 A 
BRANCH  19  21
ATOM     21  O   UNL     1       1.968   4.502   5.407  0.00  0.00    -0.491 OA
ATOM     22  C   UNL     1       1.520   3.607   4.387  0.00  0.00    +0.277 C 
ENDBRANCH  19  21
BRANCH  18  23
ATOM     23  O   UNL     1       2.971   6.200   7.330  0.00  0.00    -0.422 OA
BRANCH  23  24
ATOM     24  C   UNL     1       2.558   5.565   8.438  0.00  0.00    +0.309 C 
ATOM     25  O   UNL     1       3.010   4.480   8.716  0.00  0.00    -0.251 OA
ATOM     26  C   UNL     1       1.531   6.206   9.335  0.00  0.00    +0.136 C 
ENDBRANCH  23  24
ENDBRANCH  18  23
ENDBRANCH  12  15
BRANCH   1  27
ATOM     27  S   UNL     1       2.564  -1.802   1.961  0.00  0.00    +0.075 S 
ATOM     28  O   UNL     1       2.950  -2.683   3.006  0.00  0.00    -0.150 OA
ATOM     29  O   UNL     1       2.656  -2.160   0.589  0.00  0.00    -0.150 OA
BRANCH  27  30
ATOM     30  N   UNL     1       0.982  -1.401   2.240  0.00  0.00    -0.203 N 
BRANCH  30  31
ATOM     31  C   UNL     1       0.467  -1.452   3.538  0.00  0.00    +0.051 A 
ATOM     32  C   UNL     1       1.313  -1.301   4.629  0.00  0.00    +0.025 A 
ATOM     33  C   UNL     1       0.801  -1.352   5.910  0.00  0.00    +0.002 A 
ATOM     34  C   UNL     1      -0.553  -1.553   6.108  0.00  0.00    +0.000 A 
ATOM     35  C   UNL     1      -1.398  -1.703   5.024  0.00  0.00    +0.002 A 
ATOM     36  C   UNL     1      -0.893  -1.648   3.740  0.00  0.00    +0.025 A 
ENDBRANCH  30  31
BRANCH  30  38
ATOM     37  C   UNL     1       0.110   0.534   1.025  0.00  0.00    +0.026 C 
ATOM     38  C   UNL     1       0.122  -0.993   1.127  0.00  0.00    +0.128 C 
ENDBRANCH  30  38
ENDBRANCH  27  30
ENDBRANCH   1  27
TORSDOF 8
