REMARK  Name = ZINC06075353
REMARK  8 active torsions:
REMARK  status: ('A' for Active; 'I' for Inactive)
REMARK    1  A    between atoms: C_1  and  C_2
REMARK    2  A    between atoms: C_2  and  C_3
REMARK    3  A    between atoms: C_2  and  C_4
REMARK    4  A    between atoms: C_2  and  C_5
REMARK    5  A    between atoms: C_8  and  C_11
REMARK    6  A    between atoms: C_14  and  C_22
REMARK    7  A    between atoms: C_14  and  O_29
REMARK    8  A    between atoms: C_16  and  C_18
REMARK                            x       y       z     vdW  Elec       q    Type
REMARK                         _______ _______ _______ _____ _____    ______ ____
ROOT
ATOM      1  C   UNL     1      -2.421   1.251   4.266  0.00  0.00    +0.269 C 
ATOM      2  O   UNL     1      -2.817   1.946   5.183  0.00  0.00    -0.268 OA
ATOM      3  N   UNL     1      -1.845   1.820   3.189  0.00  0.00    -0.153 N 
ATOM      4  C   UNL     1      -1.727   3.267   2.943  0.00  0.00    +0.187 C 
ATOM      5  C   UNL     1      -0.995   3.336   1.587  0.00  0.00    +0.123 C 
ATOM      6  C   UNL     1      -0.780   1.885   1.219  0.00  0.00    +0.144 C 
ATOM      7  N   UNL     1      -1.266   1.137   2.122  0.00  0.00    -0.174 NA
ENDROOT
BRANCH   4   8
ATOM      8  C   UNL     1      -0.911   3.929   4.023  0.00  0.00    +0.004 A 
ATOM      9  C   UNL     1      -0.005   3.187   4.757  0.00  0.00    +0.009 A 
ATOM     10  C   UNL     1       0.748   3.795   5.744  0.00  0.00    +0.020 A 
ATOM     11  C   UNL     1       0.587   5.144   6.004  0.00  0.00    +0.041 A 
ATOM     12  C   UNL     1      -0.323   5.885   5.272  0.00  0.00    +0.020 A 
ATOM     13  C   UNL     1      -1.072   5.277   4.282  0.00  0.00    +0.009 A 
ATOM     14 CL   UNL     1       1.528   5.907   7.247  0.00  0.00    -0.084 Cl
ENDBRANCH   4   8
BRANCH   1  18
ATOM     15  C   UNL     1      -2.856  -2.970   4.461  0.00  0.00    -0.042 A 
ATOM     16  C   UNL     1      -3.419  -2.173   5.442  0.00  0.00    +0.005 A 
ATOM     17  C   UNL     1      -3.281  -0.802   5.385  0.00  0.00    +0.013 A 
ATOM     18  C   UNL     1      -2.572  -0.218   4.334  0.00  0.00    +0.039 A 
ATOM     19  C   UNL     1      -2.012  -1.027   3.344  0.00  0.00    +0.013 A 
ATOM     20  C   UNL     1      -2.152  -2.397   3.416  0.00  0.00    +0.005 A 
BRANCH  15  22
ATOM     21  C   UNL     1      -4.496  -4.829   4.495  0.00  0.00    +0.015 C 
ATOM     22  C   UNL     1      -3.010  -4.467   4.530  0.00  0.00    -0.013 C 
ATOM     23  C   UNL     1      -2.300  -5.109   3.336  0.00  0.00    +0.015 C 
ATOM     24  C   UNL     1      -2.390  -4.984   5.830  0.00  0.00    +0.015 C 
ENDBRANCH  15  22
ENDBRANCH   1  18
BRANCH   6  25
ATOM     25  C   UNL     1      -0.098   1.401  -0.035  0.00  0.00    +0.432 C 
ATOM     26  F   UNL     1      -0.078   0.003  -0.044  0.00  0.00    -0.165 F 
ATOM     27  F   UNL     1       1.214   1.887  -0.069  0.00  0.00    -0.165 F 
ATOM     28  F   UNL     1      -0.796   1.865  -1.155  0.00  0.00    -0.165 F 
ENDBRANCH   6  25
BRANCH   4  29
ATOM     29  O   UNL     1      -3.020   3.869   2.849  0.00  0.00    -0.366 OA
ATOM     30  H   UNL     1      -3.522   3.852   3.675  0.00  0.00    +0.212 HD
ENDBRANCH   4  29
TORSDOF 5
