REMARK  Name = ZINC45626232
REMARK  4 active torsions:
REMARK  status: ('A' for Active; 'I' for Inactive)
REMARK    1  A    between atoms: C_4  and  N_7
REMARK    2  A    between atoms: C_8  and  C_19
REMARK    3  A    between atoms: N_9  and  N_10
REMARK    4  A    between atoms: C_11  and  C_12
REMARK                            x       y       z     vdW  Elec       q    Type
REMARK                         _______ _______ _______ _____ _____    ______ ____
ROOT
ATOM      1  N   UNL     1       3.627  -0.652  -0.202  0.00  0.00    -0.297 N 
ATOM      2  C   UNL     1       3.640  -2.034  -0.198  0.00  0.00    +0.160 C 
ATOM      3  N   UNL     1       2.506  -2.703  -0.186  0.00  0.00    -0.261 N 
ATOM      4  H   UNL     1       2.920  -0.175  -0.664  0.00  0.00    +0.154 HD
ATOM      5  H   UNL     1       2.514  -3.670  -0.116  0.00  0.00    +0.190 HD
ENDROOT
BRANCH   2   6
ATOM      6  C   UNL     1       4.922  -2.758  -0.208  0.00  0.00    +0.172 A 
ATOM      7  N   UNL     1       5.059  -4.123  -0.188  0.00  0.00    -0.336 N 
ATOM      8  H   UNL     1       4.340  -4.774  -0.165  0.00  0.00    +0.167 HD
ATOM      9  C   UNL     1       6.410  -4.394  -0.206  0.00  0.00    +0.067 A 
ATOM     10  C   UNL     1       7.159  -5.563  -0.200  0.00  0.00    +0.028 A 
ATOM     11  C   UNL     1       8.536  -5.494  -0.225  0.00  0.00    +0.002 A 
ATOM     12  C   UNL     1       9.179  -4.263  -0.256  0.00  0.00    +0.002 A 
ATOM     13  C   UNL     1       8.461  -3.102  -0.263  0.00  0.00    +0.030 A 
ATOM     14  C   UNL     1       7.062  -3.146  -0.238  0.00  0.00    +0.090 A 
ATOM     15  N   UNL     1       6.107  -2.196  -0.243  0.00  0.00    -0.225 NA
ENDBRANCH   2   6
BRANCH   1  19
ATOM     16  C   UNL     1       6.622   1.463   1.770  0.00  0.00    +0.000 A 
ATOM     17  C   UNL     1       6.059   1.978   0.617  0.00  0.00    +0.002 A 
ATOM     18  C   UNL     1       5.065   1.279  -0.040  0.00  0.00    +0.023 A 
ATOM     19  C   UNL     1       4.632   0.057   0.459  0.00  0.00    +0.032 A 
ATOM     20  C   UNL     1       5.200  -0.457   1.619  0.00  0.00    +0.023 A 
ATOM     21  C   UNL     1       6.193   0.247   2.270  0.00  0.00    +0.002 A 
ENDBRANCH   1  19
BRANCH   3  22
ATOM     22  N   UNL     1       1.384  -2.072  -0.268  0.00  0.00    -0.180 NA
ATOM     23  C   UNL     1       0.256  -2.727  -0.165  0.00  0.00    +0.140 C 
BRANCH  23  24
ATOM     24  C   UNL     1      -1.021  -2.028  -0.369  0.00  0.00    -0.005 A 
ATOM     25  C   UNL     1      -1.033  -0.684  -0.759  0.00  0.00    +0.010 A 
ATOM     26  C   UNL     1      -2.234  -0.035  -0.948  0.00  0.00    +0.016 A 
ATOM     27  C   UNL     1      -3.428  -0.711  -0.753  0.00  0.00    +0.018 A 
ATOM     28  C   UNL     1      -3.424  -2.041  -0.366  0.00  0.00    +0.016 A 
ATOM     29  C   UNL     1      -2.231  -2.704  -0.179  0.00  0.00    +0.010 A 
ATOM     30 BR   UNL     1      -5.071   0.189  -1.015  0.00  0.00    -0.050 Br
ENDBRANCH  23  24
ENDBRANCH   3  22
TORSDOF 4
