REMARK  Name = ZINC19353848
REMARK  14 active torsions:
REMARK  status: ('A' for Active; 'I' for Inactive)
REMARK    1  A    between atoms: C_1  and  C_2
REMARK    2  A    between atoms: C_2  and  C_3
REMARK    3  A    between atoms: C_2  and  C_4
REMARK    4  A    between atoms: C_4  and  C_6
REMARK    5  A    between atoms: C_4  and  N_16
REMARK    6  A    between atoms: C_17  and  C_19
REMARK    7  A    between atoms: C_19  and  S_20
REMARK    8  A    between atoms: S_20  and  C_21
REMARK    9  A    between atoms: C_24  and  C_27
REMARK   10  A    between atoms: N_25  and  N_26
REMARK   11  A    between atoms: C_27  and  O_28
REMARK   12  A    between atoms: O_28  and  C_29
REMARK   13  A    between atoms: C_33  and  O_35
REMARK   14  A    between atoms: O_35  and  C_36
REMARK                            x       y       z     vdW  Elec       q    Type
REMARK                         _______ _______ _______ _____ _____    ______ ____
ROOT
ATOM      1  C   UNL     1       0.163  -2.948  -0.016  0.00  0.00    +0.173 C 
ENDROOT
BRANCH   1   3
ATOM      2  N   UNL     1      -0.692  -5.269  -0.020  0.00  0.00    -0.308 N 
ATOM      3  C   UNL     1       0.371  -4.440  -0.026  0.00  0.00    +0.224 C 
ATOM      4  O   UNL     1       1.495  -4.896  -0.040  0.00  0.00    -0.275 OA
ATOM      5  H   UNL     1      -1.712  -4.856  -0.008  0.00  0.00    +0.149 HD
BRANCH   2   6
ATOM      6  C   UNL     1      -0.490  -6.720  -0.030  0.00  0.00    +0.106 C 
BRANCH   6   7
ATOM      7  C   UNL     1      -1.690  -7.398   0.578  0.00  0.00    -0.023 A 
ATOM      8  C   UNL     1      -2.961  -6.932   0.300  0.00  0.00    +0.009 A 
ATOM      9  C   UNL     1      -4.064  -7.552   0.856  0.00  0.00    +0.050 A 
ATOM     10  C   UNL     1      -3.898  -8.642   1.697  0.00  0.00    +0.162 A 
ATOM     11  C   UNL     1      -2.620  -9.112   1.975  0.00  0.00    +0.162 A 
ATOM     12  C   UNL     1      -1.518  -8.489   1.409  0.00  0.00    +0.055 A 
ATOM     13  O   UNL     1      -2.435 -10.184   2.794  0.00  0.00    -0.485 OA
ATOM     14  C   UNL     1      -3.535 -10.548   3.635  0.00  0.00    +0.270 C 
ATOM     15  C   UNL     1      -4.811 -10.551   2.782  0.00  0.00    +0.270 C 
ATOM     16  O   UNL     1      -4.994  -9.237   2.244  0.00  0.00    -0.485 OA
ENDBRANCH   6   7
BRANCH   6  18
ATOM     17  C   UNL     1       0.909  -6.510  -2.090  0.00  0.00    +0.009 C 
ATOM     18  C   UNL     1      -0.309  -7.199  -1.472  0.00  0.00    +0.008 C 
ATOM     19  C   UNL     1      -0.098  -8.715  -1.482  0.00  0.00    +0.009 C 
ENDBRANCH   6  18
ENDBRANCH   2   6
ENDBRANCH   1   3
BRANCH   1  20
ATOM     20  S   UNL     1       1.770  -2.114  -0.027  0.00  0.00    -0.075 S 
BRANCH  20  21
ATOM     21  C   UNL     1       1.243  -0.433  -0.012  0.00  0.00    +0.209 A 
ATOM     22  N   UNL     1       0.002  -0.004   0.002  0.00  0.00    -0.121 NA
ATOM     23  N   UNL     1      -0.015   1.281   0.009  0.00  0.00    -0.128 NA
ATOM     24  C   UNL     1       1.202   1.745   0.000  0.00  0.00    +0.189 A 
ATOM     25  N   UNL     1       2.047   0.670  -0.014  0.00  0.00    -0.225 N 
BRANCH  25  26
ATOM     26  N   UNL     1       3.413   0.695  -0.028  0.00  0.00    -0.295 N 
ATOM     27  H   UNL     1       3.946   1.657  -0.027  0.00  0.00    +0.163 HD
ATOM     28  H   UNL     1       3.980  -0.248  -0.039  0.00  0.00    +0.163 HD
ENDBRANCH  25  26
BRANCH  24  29
ATOM     29  C   UNL     1       1.605   3.197   0.004  0.00  0.00    +0.306 C 
BRANCH  29  30
ATOM     30  O   UNL     1       1.745   3.649   1.352  0.00  0.00    -0.484 OA
BRANCH  30  31
ATOM     31  C   UNL     1       2.106   4.947   1.533  0.00  0.00    +0.125 A 
ATOM     32  C   UNL     1       2.327   5.766   0.435  0.00  0.00    +0.046 A 
ATOM     33  C   UNL     1       2.690   7.087   0.618  0.00  0.00    +0.007 A 
ATOM     34  C   UNL     1       2.844   7.592   1.895  0.00  0.00    +0.046 A 
ATOM     35  C   UNL     1       2.630   6.776   2.996  0.00  0.00    +0.124 A 
ATOM     36  C   UNL     1       2.261   5.451   2.815  0.00  0.00    +0.091 A 
BRANCH  35  37
ATOM     37  O   UNL     1       2.782   7.273   4.252  0.00  0.00    -0.495 OA
ATOM     38  C   UNL     1       3.164   8.645   4.364  0.00  0.00    +0.277 C 
ENDBRANCH  35  37
ENDBRANCH  30  31
ENDBRANCH  29  30
ENDBRANCH  24  29
ENDBRANCH  20  21
ENDBRANCH   1  20
TORSDOF 11
