REMARK  Name = ZINC50633259
REMARK  6 active torsions:
REMARK  status: ('A' for Active; 'I' for Inactive)
REMARK    1  A    between atoms: C_1  and  C_2
REMARK    2  A    between atoms: C_2  and  N_3
REMARK    3  A    between atoms: C_5  and  S_10
REMARK    4  A    between atoms: S_10  and  N_13
REMARK    5  A    between atoms: N_13  and  C_14
REMARK    6  A    between atoms: C_19  and  C_20
REMARK                            x       y       z     vdW  Elec       q    Type
REMARK                         _______ _______ _______ _____ _____    ______ ____
ROOT
ATOM      1  S   UNL     1       2.139  -1.125  -3.735  0.00  0.00    +0.095 S 
ATOM      2  O   UNL     1       2.883  -0.174  -2.986  0.00  0.00    -0.148 OA
ATOM      3  O   UNL     1       2.716  -1.886  -4.788  0.00  0.00    -0.148 OA
ENDROOT
BRANCH   1   6
ATOM      4  N   UNL     1       0.688  -0.476  -1.203  0.00  0.00    -0.329 N 
ATOM      5  C   UNL     1       0.831  -1.840  -1.432  0.00  0.00    +0.123 A 
ATOM      6  C   UNL     1       1.488  -2.282  -2.576  0.00  0.00    +0.148 A 
ATOM      7  C   UNL     1       1.624  -3.641  -2.791  0.00  0.00    +0.034 A 
ATOM      8  C   UNL     1       1.096  -4.517  -1.851  0.00  0.00    +0.019 A 
ATOM      9  C   UNL     1       0.456  -4.009  -0.739  0.00  0.00    +0.084 A 
ATOM     10  N   UNL     1       0.346  -2.707  -0.557  0.00  0.00    -0.348 N 
ATOM     11  H   UNL     1       1.042   0.162  -1.842  0.00  0.00    +0.147 HD
ATOM     12  H   UNL     1      -0.105  -2.376   0.236  0.00  0.00    +0.167 HD
BRANCH   4  14
ATOM     13  C   UNL     1      -0.019   1.526   0.010  0.00  0.00    +0.024 C 
ATOM     14  C   UNL     1       0.002  -0.004   0.002  0.00  0.00    +0.099 C 
ENDBRANCH   4  14
ENDBRANCH   1   6
BRANCH   1  15
ATOM     15  N   UNL     1       0.853  -0.312  -4.389  0.00  0.00    -0.097 NA
BRANCH  15  16
ATOM     16  C   UNL     1       1.069   0.679  -5.350  0.00  0.00    +0.077 A 
ATOM     17  C   UNL     1       2.361   0.979  -5.763  0.00  0.00    +0.028 A 
ATOM     18  C   UNL     1       2.571   1.958  -6.713  0.00  0.00    +0.017 A 
ATOM     19  C   UNL     1       1.496   2.640  -7.255  0.00  0.00    +0.018 A 
ATOM     20  C   UNL     1       0.208   2.344  -6.846  0.00  0.00    +0.020 A 
ATOM     21  C   UNL     1      -0.008   1.362  -5.900  0.00  0.00    -0.025 A 
ATOM     22  C   UNL     1      -1.412   1.035  -5.459  0.00  0.00    +0.046 C 
ATOM     23 BR   UNL     1       1.789   3.981  -8.556  0.00  0.00    -0.050 Br
ENDBRANCH  15  16
ENDBRANCH   1  15
TORSDOF 4
