REMARK  Name = ZINC13783309
REMARK  11 active torsions:
REMARK  status: ('A' for Active; 'I' for Inactive)
REMARK    1  A    between atoms: C_1  and  C_2
REMARK    2  A    between atoms: C_10  and  O_36
REMARK    3  A    between atoms: C_21  and  N_73
REMARK    4  A    between atoms: C_23  and  C_24
REMARK    5  A    between atoms: C_23  and  N_73
REMARK    6  A    between atoms: C_24  and  C_25
REMARK    7  A    between atoms: C_25  and  C_26
REMARK    8  A    between atoms: C_26  and  C_27
REMARK    9  A    between atoms: C_27  and  C_28
REMARK   10  A    between atoms: C_28  and  N_29
REMARK   11  A    between atoms: O_36  and  C_37
REMARK                            x       y       z     vdW  Elec       q    Type
REMARK                         _______ _______ _______ _____ _____    ______ ____
ROOT
ATOM      1  C   UNL     1      -0.718  -2.819   1.399  0.00  0.00    +0.010 C 
ATOM      2  C   UNL     1      -1.376  -2.127   0.204  0.00  0.00    -0.041 C 
ATOM      3  C   UNL     1      -0.763  -2.588  -1.119  0.00  0.00    +0.006 C 
ATOM      4  C   UNL     1       0.631  -1.996  -1.324  0.00  0.00    +0.009 C 
ATOM      5  C   UNL     1       0.499  -0.472  -1.362  0.00  0.00    +0.023 C 
ATOM      6  C   UNL     1       1.823   0.162  -1.682  0.00  0.00    -0.041 A 
ATOM      7  C   UNL     1       2.626  -0.444  -2.640  0.00  0.00    +0.008 A 
ATOM      8  C   UNL     1       3.847   0.100  -2.978  0.00  0.00    +0.046 A 
ATOM      9  C   UNL     1       4.276   1.264  -2.356  0.00  0.00    +0.120 A 
ATOM     10  C   UNL     1       3.477   1.865  -1.399  0.00  0.00    +0.049 A 
ATOM     11  C   UNL     1       2.251   1.313  -1.055  0.00  0.00    -0.040 A 
ATOM     12  C   UNL     1       1.426   2.023  -0.001  0.00  0.00    +0.036 C 
ATOM     13  C   UNL     1      -0.019   1.525   0.010  0.00  0.00    +0.009 C 
ATOM     14  C   UNL     1       0.002  -0.004   0.002  0.00  0.00    +0.000 C 
ATOM     15  C   UNL     1      -1.347  -0.591   0.326  0.00  0.00    -0.003 C 
ATOM     16  C   UNL     1      -2.445  -0.135  -0.654  0.00  0.00    +0.003 C 
ATOM     17  C   UNL     1      -3.567  -1.179  -0.449  0.00  0.00    -0.015 C 
ATOM     18  C   UNL     1      -2.894  -2.440   0.125  0.00  0.00    -0.066 C 
ENDROOT
BRANCH  18  19
ATOM     19  N   UNL     1      -3.417  -2.725   1.474  0.00  0.00    +0.381 N 
ATOM     20  H   UNL     1      -3.656  -1.841   1.938  0.00  0.00    -0.086 HD
ATOM     21  H   UNL     1      -2.697  -3.213   2.020  0.00  0.00    -0.086 HD
BRANCH  19  22
ATOM     22  C   UNL     1      -4.621  -3.571   1.389  0.00  0.00    -0.082 C 
BRANCH  22  23
ATOM     23  C   UNL     1      -5.139  -3.849   2.802  0.00  0.00    -0.019 C 
BRANCH  23  24
ATOM     24  C   UNL     1      -6.390  -4.728   2.723  0.00  0.00    -0.002 C 
BRANCH  24  25
ATOM     25  C   UNL     1      -6.908  -5.005   4.136  0.00  0.00    +0.001 C 
BRANCH  25  26
ATOM     26  C   UNL     1      -8.158  -5.884   4.056  0.00  0.00    +0.019 C 
BRANCH  26  27
ATOM     27  C   UNL     1      -8.677  -6.162   5.469  0.00  0.00    +0.117 C 
BRANCH  27  28
ATOM     28  N   UNL     1      -9.874  -7.002   5.393  0.00  0.00    -0.235 N 
ATOM     29  C   UNL     1     -11.137  -6.548   5.306  0.00  0.00    +0.246 C 
ATOM     30  O   UNL     1     -11.471  -5.381   5.277  0.00  0.00    -0.270 OA
ATOM     31  C   UNL     1     -12.049  -7.711   5.247  0.00  0.00    +0.073 C 
ATOM     32  C   UNL     1     -11.281  -8.811   5.313  0.00  0.00    +0.073 C 
ATOM     33  C   UNL     1      -9.879  -8.348   5.407  0.00  0.00    +0.246 C 
ATOM     34  O   UNL     1      -8.899  -9.061   5.484  0.00  0.00    -0.270 OA
ENDBRANCH  27  28
ENDBRANCH  26  27
ENDBRANCH  25  26
ENDBRANCH  24  25
ENDBRANCH  23  24
ENDBRANCH  22  23
ENDBRANCH  19  22
ENDBRANCH  18  19
BRANCH   9  35
ATOM     35  O   UNL     1       5.476   1.811  -2.686  0.00  0.00    -0.495 OA
ATOM     36  C   UNL     1       6.246   1.134  -3.681  0.00  0.00    +0.277 C 
ENDBRANCH   9  35
TORSDOF 9
