REMARK  Name = ZINC35744522
REMARK  11 active torsions:
REMARK  status: ('A' for Active; 'I' for Inactive)
REMARK    1  A    between atoms: C_1  and  O_2
REMARK    2  A    between atoms: O_2  and  C_3
REMARK    3  A    between atoms: C_3  and  C_4
REMARK    4  A    between atoms: C_4  and  C_6
REMARK    5  A    between atoms: C_4  and  O_29
REMARK    6  A    between atoms: C_6  and  N_7
REMARK    7  A    between atoms: N_7  and  C_8
REMARK    8  A    between atoms: C_8  and  C_10
REMARK    9  A    between atoms: C_8  and  C_17
REMARK   10  A    between atoms: C_10  and  C_11
REMARK   11  A    between atoms: C_19  and  C_22
REMARK                            x       y       z     vdW  Elec       q    Type
REMARK                         _______ _______ _______ _____ _____    ______ ____
ROOT
ATOM      1  C   UNL     1       2.045  -4.741  -3.277  0.00  0.00    +0.023 C 
ENDROOT
BRANCH   1   2
ATOM      2  C   UNL     1       1.794  -6.219  -3.428  0.00  0.00    +0.214 A 
ATOM      3  N   UNL     1       1.448  -6.824  -4.529  0.00  0.00    -0.193 NA
ATOM      4  C   UNL     1       1.309  -8.143  -4.305  0.00  0.00    +0.202 A 
ATOM      5  N   UNL     1       1.570  -8.384  -3.044  0.00  0.00    -0.056 NA
ATOM      6  O   UNL     1       1.896  -7.134  -2.455  0.00  0.00    -0.339 OA
BRANCH   4   7
ATOM      7  C   UNL     1       0.923  -9.156  -5.318  0.00  0.00    +0.023 A 
ATOM      8  C   UNL     1       0.675  -8.770  -6.634  0.00  0.00    +0.013 A 
ATOM      9  C   UNL     1       0.317  -9.716  -7.572  0.00  0.00    +0.016 A 
ATOM     10  C   UNL     1       0.203 -11.047  -7.208  0.00  0.00    +0.018 A 
ATOM     11  C   UNL     1       0.447 -11.435  -5.903  0.00  0.00    +0.016 A 
ATOM     12  C   UNL     1       0.813 -10.498  -4.958  0.00  0.00    +0.013 A 
ATOM     13 BR   UNL     1      -0.290 -12.338  -8.499  0.00  0.00    -0.050 Br
ENDBRANCH   4   7
ENDBRANCH   1   2
BRANCH   1  14
ATOM     14  N   UNL     1       1.392  -4.256  -2.053  0.00  0.00    +0.389 N 
ATOM     15  H   UNL     1       1.835  -4.672  -1.248  0.00  0.00    -0.085 HD
ATOM     16  H   UNL     1       0.416  -4.512  -2.069  0.00  0.00    -0.085 HD
BRANCH  14  17
ATOM     17  C   UNL     1       1.514  -2.794  -1.979  0.00  0.00    -0.048 C 
BRANCH  17  18
ATOM     18  C   UNL     1       0.722  -2.276  -0.777  0.00  0.00    +0.123 C 
BRANCH  18  19
ATOM     19  O   UNL     1      -0.654  -2.632  -0.924  0.00  0.00    -0.391 OA
ATOM     20  H   UNL     1      -1.071  -2.271  -1.718  0.00  0.00    +0.210 HD
ENDBRANCH  18  19
BRANCH  18  21
ATOM     21  C   UNL     1       0.849  -0.754  -0.700  0.00  0.00    +0.188 C 
BRANCH  21  23
ATOM     22  C   UNL     1       0.269   1.136   0.655  0.00  0.00    +0.194 C 
ATOM     23  O   UNL     1       0.208  -0.281   0.486  0.00  0.00    -0.381 OA
ENDBRANCH  21  23
ENDBRANCH  18  21
ENDBRANCH  17  18
ENDBRANCH  14  17
ENDBRANCH   1  14
BRANCH   1  24
ATOM     24  C   UNL     1       3.551  -4.486  -3.186  0.00  0.00    +0.029 C 
BRANCH  24  25
ATOM     25  C   UNL     1       4.203  -4.861  -4.492  0.00  0.00    -0.048 A 
ATOM     26  C   UNL     1       4.761  -6.115  -4.651  0.00  0.00    +0.003 A 
ATOM     27  C   UNL     1       5.359  -6.459  -5.849  0.00  0.00    +0.000 A 
ATOM     28  C   UNL     1       5.399  -5.548  -6.888  0.00  0.00    +0.000 A 
ATOM     29  C   UNL     1       4.841  -4.293  -6.729  0.00  0.00    +0.000 A 
ATOM     30  C   UNL     1       4.239  -3.951  -5.533  0.00  0.00    +0.003 A 
ENDBRANCH  24  25
ENDBRANCH   1  24
TORSDOF 10
