REMARK  Name = ZINC63514263
REMARK  11 active torsions:
REMARK  status: ('A' for Active; 'I' for Inactive)
REMARK    1  A    between atoms: C_1  and  C_2
REMARK    2  A    between atoms: C_4  and  C_14
REMARK    3  A    between atoms: C_7  and  O_12
REMARK    4  A    between atoms: O_12  and  C_13
REMARK    5  A    between atoms: C_14  and  C_15
REMARK    6  A    between atoms: C_15  and  N_16
REMARK    7  A    between atoms: C_17  and  C_19
REMARK    8  A    between atoms: C_21  and  S_27
REMARK    9  A    between atoms: S_27  and  N_30
REMARK   10  A    between atoms: N_30  and  C_31
REMARK   11  A    between atoms: N_30  and  C_32
REMARK                            x       y       z     vdW  Elec       q    Type
REMARK                         _______ _______ _______ _____ _____    ______ ____
ROOT
ATOM      1  N   UNL     1      -3.548   0.253  -2.488  0.00  0.00    -0.311 N 
ATOM      2  C   UNL     1      -4.561  -0.469  -1.969  0.00  0.00    +0.246 C 
ATOM      3  O   UNL     1      -4.410  -1.058  -0.916  0.00  0.00    -0.270 OA
ATOM      4  H   UNL     1      -3.668   0.723  -3.329  0.00  0.00    +0.149 HD
ENDROOT
BRANCH   2   5
ATOM      5  C   UNL     1      -5.854  -0.544  -2.679  0.00  0.00    +0.057 A 
ATOM      6  C   UNL     1      -6.028   0.126  -3.892  0.00  0.00    +0.044 A 
ATOM      7  C   UNL     1      -7.237   0.052  -4.550  0.00  0.00    +0.124 A 
ATOM      8  C   UNL     1      -8.279  -0.685  -4.011  0.00  0.00    +0.069 A 
ATOM      9  C   UNL     1      -8.114  -1.352  -2.809  0.00  0.00    +0.042 A 
ATOM     10  C   UNL     1      -6.906  -1.291  -2.143  0.00  0.00    +0.055 A 
ATOM     11 CL   UNL     1      -6.697  -2.135  -0.640  0.00  0.00    -0.083 Cl
ATOM     12 CL   UNL     1      -9.798  -0.772  -4.846  0.00  0.00    -0.081 Cl
BRANCH   7  13
ATOM     13  S   UNL     1      -7.458   0.898  -6.080  0.00  0.00    +0.062 S 
ATOM     14  O   UNL     1      -6.228   1.549  -6.365  0.00  0.00    -0.153 OA
ATOM     15  O   UNL     1      -8.053  -0.031  -6.975  0.00  0.00    -0.153 OA
BRANCH  13  16
ATOM     16  N   UNL     1      -8.577   2.091  -5.822  0.00  0.00    -0.183 NA
ATOM     17  C   UNL     1      -8.162   3.372  -5.243  0.00  0.00    +0.131 C 
ATOM     18  C   UNL     1      -9.981   1.867  -6.174  0.00  0.00    +0.131 C 
ENDBRANCH  13  16
ENDBRANCH   7  13
ENDBRANCH   2   5
BRANCH   1  19
ATOM     19  C   UNL     1      -2.265   0.328  -1.784  0.00  0.00    +0.109 C 
BRANCH  19  20
ATOM     20  C   UNL     1      -1.296   1.203  -2.581  0.00  0.00    +0.052 C 
BRANCH  20  23
ATOM     21  C   UNL     1       0.949   3.533  -2.394  0.00  0.00    +0.035 C 
ATOM     22  C   UNL     1       1.257   2.038  -2.293  0.00  0.00    +0.103 C 
ATOM     23  C   UNL     1       0.023   1.280  -1.857  0.00  0.00    -0.037 C 
ATOM     24  C   UNL     1       0.343   0.686  -0.685  0.00  0.00    +0.003 A 
ATOM     25  C   UNL     1      -0.410  -0.177   0.232  0.00  0.00    +0.055 A 
ATOM     26  C   UNL     1       0.186  -0.634   1.359  0.00  0.00    +0.121 A 
ATOM     27  C   UNL     1       1.514  -0.311   1.690  0.00  0.00    +0.047 A 
ATOM     28  C   UNL     1       2.287   0.475   0.910  0.00  0.00    +0.029 A 
ATOM     29  C   UNL     1       1.742   1.026  -0.335  0.00  0.00    +0.043 A 
ATOM     30  N   UNL     1       2.266   1.799  -1.255  0.00  0.00    -0.378 N 
ATOM     31  H   UNL     1       3.169   2.153  -1.251  0.00  0.00    +0.160 HD
BRANCH  26  32
ATOM     32  O   UNL     1      -0.524  -1.432   2.199  0.00  0.00    -0.495 OA
ATOM     33  C   UNL     1       0.144  -1.891   3.377  0.00  0.00    +0.277 C 
ENDBRANCH  26  32
ENDBRANCH  20  23
ENDBRANCH  19  20
ENDBRANCH   1  19
TORSDOF 7
