REMARK  Name = ZINC20526318
REMARK  5 active torsions:
REMARK  status: ('A' for Active; 'I' for Inactive)
REMARK    1  A    between atoms: C_1  and  C_2
REMARK    2  A    between atoms: C_2  and  C_4
REMARK    3  A    between atoms: C_2  and  N_13
REMARK    4  A    between atoms: C_9  and  N_10
REMARK    5  A    between atoms: N_13  and  C_14
REMARK                            x       y       z     vdW  Elec       q    Type
REMARK                         _______ _______ _______ _____ _____    ______ ____
ROOT
ATOM      1  C   UNL     1       2.243   0.724  -0.928  0.00  0.00    +0.033 C 
ATOM      2  C   UNL     1       1.350   1.553  -0.002  0.00  0.00    +0.100 C 
ENDROOT
BRANCH   2   3
ATOM      3  C   UNL     1       1.913   1.525   1.396  0.00  0.00    +0.003 A 
ATOM      4  C   UNL     1       1.361   0.688   2.347  0.00  0.00    +0.008 A 
ATOM      5  C   UNL     1       1.877   0.662   3.629  0.00  0.00    +0.000 A 
ATOM      6  C   UNL     1       2.947   1.473   3.960  0.00  0.00    +0.002 A 
ATOM      7  C   UNL     1       3.500   2.309   3.009  0.00  0.00    +0.033 A 
ATOM      8  C   UNL     1       2.986   2.332   1.725  0.00  0.00    +0.131 A 
BRANCH   8   9
ATOM      9  N   UNL     1       3.581   3.224   0.705  0.00  0.00    +0.057 N 
ATOM     10  O   UNL     1       4.581   3.868   0.968  0.00  0.00    -0.126 OA
ATOM     11  O   UNL     1       3.072   3.313  -0.398  0.00  0.00    -0.126 OA
ENDBRANCH   8   9
ENDBRANCH   2   3
BRANCH   2  12
ATOM     12  N   UNL     1      -0.006   0.988   0.006  0.00  0.00    -0.335 N 
ATOM     13  H   UNL     1      -0.301   0.276   0.790  0.00  0.00    +0.147 HD
BRANCH  12  14
ATOM     14  C   UNL     1      -0.760   1.481  -1.064  0.00  0.00    +0.056 A 
ATOM     15  C   UNL     1      -0.996   2.846  -1.178  0.00  0.00    +0.041 A 
ATOM     16  C   UNL     1      -1.737   3.331  -2.239  0.00  0.00    +0.032 A 
ATOM     17  C   UNL     1      -2.253   2.458  -3.180  0.00  0.00    +0.020 A 
ATOM     18  C   UNL     1      -2.025   1.099  -3.066  0.00  0.00    +0.032 A 
ATOM     19  C   UNL     1      -1.279   0.608  -2.011  0.00  0.00    +0.041 A 
ATOM     20 BR   UNL     1      -0.967  -1.251  -1.857  0.00  0.00    -0.048 Br
ATOM     21 BR   UNL     1      -3.274   3.126  -4.626  0.00  0.00    -0.050 Br
ATOM     22 BR   UNL     1      -0.298   4.038   0.113  0.00  0.00    -0.048 Br
ENDBRANCH  12  14
ENDBRANCH   2  12
TORSDOF 4
