REMARK  Name = ZINC66981901
REMARK  6 active torsions:
REMARK  status: ('A' for Active; 'I' for Inactive)
REMARK    1  A    between atoms: C_1  and  C_2
REMARK    2  A    between atoms: C_7  and  N_12
REMARK    3  A    between atoms: C_9  and  C_11
REMARK    4  A    between atoms: C_13  and  C_15
REMARK    5  A    between atoms: N_17  and  C_18
REMARK    6  A    between atoms: C_21  and  C_24
REMARK                            x       y       z     vdW  Elec       q    Type
REMARK                         _______ _______ _______ _____ _____    ______ ____
ROOT
ATOM      1  C   UNL     1       1.400  -0.302   6.052  0.00  0.00    +0.303 C 
ATOM      2  O   UNL     1       2.110  -1.284   5.981  0.00  0.00    -0.265 OA
ATOM      3  N   UNL     1       1.255   0.341   7.228  0.00  0.00    -0.278 N 
ATOM      4  H   UNL     1       0.742   1.163   7.272  0.00  0.00    +0.155 HD
ENDROOT
BRANCH   3   5
ATOM      5  C   UNL     1       1.843  -0.177   8.383  0.00  0.00    +0.034 A 
ATOM      6  C   UNL     1       3.079  -0.812   8.308  0.00  0.00    +0.024 A 
ATOM      7  C   UNL     1       3.662  -1.324   9.446  0.00  0.00    +0.013 A 
ATOM      8  C   UNL     1       3.012  -1.204  10.676  0.00  0.00    +0.019 A 
ATOM      9  C   UNL     1       1.772  -0.566  10.748  0.00  0.00    +0.013 A 
ATOM     10  C   UNL     1       1.196  -0.051   9.608  0.00  0.00    +0.024 A 
BRANCH   8  11
ATOM     11  C   UNL     1       3.635  -1.753  11.899  0.00  0.00    +0.164 A 
ATOM     12  N   UNL     1       4.901  -2.086  12.056  0.00  0.00    -0.129 NA
ATOM     13  N   UNL     1       5.091  -2.528  13.251  0.00  0.00    -0.134 NA
ATOM     14  C   UNL     1       3.974  -2.502  13.915  0.00  0.00    +0.134 A 
ATOM     15  N   UNL     1       3.014  -2.006  13.083  0.00  0.00    -0.311 N 
ATOM     16  C   UNL     1       1.612  -1.813  13.447  0.00  0.00    +0.125 C 
ATOM     17  C   UNL     1       1.316  -2.625  14.714  0.00  0.00    +0.022 C 
ATOM     18  C   UNL     1       2.373  -2.319  15.779  0.00  0.00    +0.009 C 
ATOM     19  C   UNL     1       3.718  -2.920  15.341  0.00  0.00    +0.076 C 
ENDBRANCH   8  11
ENDBRANCH   3   5
BRANCH   1  21
ATOM     20  N   UNL     1       0.832  -0.447   3.662  0.00  0.00    -0.304 N 
ATOM     21  C   UNL     1       0.687   0.195   4.838  0.00  0.00    +0.300 C 
ATOM     22  O   UNL     1      -0.022   1.177   4.909  0.00  0.00    -0.265 OA
ATOM     23  H   UNL     1       1.399  -1.232   3.604  0.00  0.00    +0.149 HD
BRANCH  20  29
ATOM     24  C   UNL     1       0.091   1.630   0.010  0.00  0.00    +0.008 C 
ATOM     25  C   UNL     1       0.159   0.102  -0.028  0.00  0.00    -0.009 C 
ATOM     26  C   UNL     1      -1.260  -0.471  -0.057  0.00  0.00    +0.003 C 
ATOM     27  C   UNL     1      -2.016  -0.025   1.196  0.00  0.00    +0.002 C 
ATOM     28  C   UNL     1      -1.285  -0.533   2.441  0.00  0.00    +0.022 C 
ATOM     29  C   UNL     1       0.133   0.040   2.470  0.00  0.00    +0.076 C 
ATOM     30  C   UNL     1       0.889  -0.406   1.217  0.00  0.00    +0.009 C 
ATOM     31  C   UNL     1       2.307   0.167   1.246  0.00  0.00    +0.009 C 
ENDBRANCH  20  29
ENDBRANCH   1  21
TORSDOF 4
