REMARK  Name = ZINC36644165
REMARK  13 active torsions:
REMARK  status: ('A' for Active; 'I' for Inactive)
REMARK    1  A    between atoms: C_1  and  C_2
REMARK    2  A    between atoms: C_2  and  N_3
REMARK    3  A    between atoms: N_3  and  C_4
REMARK    4  A    between atoms: N_3  and  C_6
REMARK    5  A    between atoms: C_4  and  C_5
REMARK    6  A    between atoms: C_6  and  C_7
REMARK    7  A    between atoms: C_7  and  C_9
REMARK    8  A    between atoms: C_7  and  C_10
REMARK    9  A    between atoms: C_10  and  N_11
REMARK   10  A    between atoms: C_12  and  C_14
REMARK   11  A    between atoms: C_23  and  S_26
REMARK   12  A    between atoms: S_26  and  N_29
REMARK   13  A    between atoms: C_33  and  C_36
REMARK                            x       y       z     vdW  Elec       q    Type
REMARK                         _______ _______ _______ _____ _____    ______ ____
ROOT
ATOM      1  C   UNL     1      -4.476  -6.803  -1.101  0.00  0.00    +0.051 A 
ATOM      2  C   UNL     1      -4.690  -8.115  -0.789  0.00  0.00    +0.083 A 
ATOM      3  C   UNL     1      -6.059  -8.616  -0.691  0.00  0.00    +0.250 A 
ATOM      4  O   UNL     1      -6.251  -9.787  -0.412  0.00  0.00    -0.268 OA
ATOM      5  N   UNL     1      -7.110  -7.805  -0.902  0.00  0.00    -0.322 N 
ATOM      6  H   UNL     1      -8.008  -8.163  -0.830  0.00  0.00    +0.169 HD
ATOM      7  C   UNL     1      -6.936  -6.475  -1.219  0.00  0.00    +0.050 A 
ATOM      8  C   UNL     1      -5.641  -5.934  -1.321  0.00  0.00    +0.012 A 
ATOM      9  C   UNL     1      -5.474  -4.583  -1.637  0.00  0.00    +0.039 A 
ATOM     10  C   UNL     1      -6.570  -3.792  -1.839  0.00  0.00    +0.106 A 
ATOM     11  C   UNL     1      -7.850  -4.319  -1.732  0.00  0.00    +0.030 A 
ATOM     12  C   UNL     1      -8.038  -5.651  -1.434  0.00  0.00    +0.028 A 
ENDROOT
BRANCH   1  14
ATOM     13  N   UNL     1      -2.041  -7.098  -1.134  0.00  0.00    -0.311 N 
ATOM     14  C   UNL     1      -3.098  -6.265  -1.208  0.00  0.00    +0.245 C 
ATOM     15  O   UNL     1      -2.922  -5.073  -1.363  0.00  0.00    -0.270 OA
ATOM     16  H   UNL     1      -2.182  -8.057  -1.083  0.00  0.00    +0.149 HD
BRANCH  13  17
ATOM     17  C   UNL     1      -0.680  -6.557  -1.131  0.00  0.00    +0.106 C 
BRANCH  17  18
ATOM     18  C   UNL     1       0.327  -7.708  -1.160  0.00  0.00    -0.014 C 
ATOM     19  C   UNL     1       0.191  -8.537   0.118  0.00  0.00    +0.007 C 
BRANCH  18  20
ATOM     20  C   UNL     1       1.746  -7.142  -1.253  0.00  0.00    -0.074 C 
BRANCH  20  21
ATOM     21  N   UNL     1       2.704  -8.246  -1.401  0.00  0.00    +0.380 N 
ATOM     22  H   UNL     1       2.582  -8.902  -0.645  0.00  0.00    -0.082 HD
BRANCH  21  24
ATOM     23  C   UNL     1       3.376 -10.158  -2.776  0.00  0.00    -0.017 C 
ATOM     24  C   UNL     1       2.473  -8.927  -2.682  0.00  0.00    -0.082 C 
ENDBRANCH  21  24
BRANCH  21  25
ATOM     25  C   UNL     1       4.073  -7.713  -1.370  0.00  0.00    -0.082 C 
ATOM     26  C   UNL     1       4.362  -7.131   0.015  0.00  0.00    -0.017 C 
ENDBRANCH  21  25
ENDBRANCH  20  21
ENDBRANCH  18  20
ENDBRANCH  17  18
ENDBRANCH  13  17
ENDBRANCH   1  14
BRANCH  10  27
ATOM     27  S   UNL     1      -6.357  -2.088  -2.236  0.00  0.00    +0.061 S 
ATOM     28  O   UNL     1      -7.500  -1.409  -1.737  0.00  0.00    -0.153 OA
ATOM     29  O   UNL     1      -5.034  -1.743  -1.847  0.00  0.00    -0.153 OA
BRANCH  27  30
ATOM     30  N   UNL     1      -6.413  -1.960  -3.886  0.00  0.00    -0.176 NA
ATOM     31  C   UNL     1      -5.208  -2.186  -4.697  0.00  0.00    +0.109 C 
ATOM     32  C   UNL     1      -5.521  -3.240  -5.763  0.00  0.00    +0.017 C 
ATOM     33  C   UNL     1      -6.745  -2.798  -6.567  0.00  0.00    +0.006 C 
ATOM     34  C   UNL     1      -7.954  -2.680  -5.636  0.00  0.00    +0.002 C 
ATOM     35  C   UNL     1      -7.670  -1.625  -4.569  0.00  0.00    +0.112 C 
ATOM     36  C   UNL     1      -9.185  -2.271  -6.447  0.00  0.00    +0.009 C 
ENDBRANCH  27  30
ENDBRANCH  10  27
TORSDOF 9
