REMARK  Name = ZINC11591819
REMARK  7 active torsions:
REMARK  status: ('A' for Active; 'I' for Inactive)
REMARK    1  A    between atoms: C_3  and  C_6
REMARK    2  A    between atoms: C_9  and  S_12
REMARK    3  A    between atoms: N_10  and  N_11
REMARK    4  A    between atoms: S_12  and  C_13
REMARK    5  A    between atoms: C_13  and  C_14
REMARK    6  A    between atoms: C_17  and  C_27
REMARK    7  A    between atoms: C_20  and  C_22
REMARK                            x       y       z     vdW  Elec       q    Type
REMARK                         _______ _______ _______ _____ _____    ______ ____
ROOT
ATOM      1  C   UNL     1       4.887   9.093  -0.214  0.00  0.00    +0.246 C 
ATOM      2  O   UNL     1       3.949   9.802  -0.514  0.00  0.00    -0.273 OA
ATOM      3  N   UNL     1       6.104   9.635  -0.014  0.00  0.00    -0.184 N 
ATOM      4  C   UNL     1       6.434  11.065  -0.132  0.00  0.00    +0.143 C 
ATOM      5  C   UNL     1       7.938  11.118   0.200  0.00  0.00    +0.088 C 
ATOM      6  C   UNL     1       8.304   9.676   0.468  0.00  0.00    +0.075 C 
ATOM      7  N   UNL     1       7.257   8.933   0.332  0.00  0.00    -0.180 NA
ENDROOT
BRANCH   6   8
ATOM      8  C   UNL     1       9.642   9.195   0.827  0.00  0.00    +0.035 A 
ATOM      9  C   UNL     1      10.063   7.903   1.093  0.00  0.00    +0.017 A 
ATOM     10  C   UNL     1      11.386   7.699   1.408  0.00  0.00    +0.008 A 
ATOM     11  C   UNL     1      12.230   8.762   1.458  0.00  0.00    +0.046 A 
ATOM     12  S   UNL     1      11.152  10.123   1.043  0.00  0.00    -0.095 S 
ENDBRANCH   6   8
BRANCH   4  13
ATOM     13  C   UNL     1       6.181  11.553  -1.535  0.00  0.00    +0.013 A 
ATOM     14  C   UNL     1       5.665  12.738  -1.946  0.00  0.00    +0.013 A 
ATOM     15  C   UNL     1       5.525  12.973  -3.301  0.00  0.00    +0.008 A 
ATOM     16  C   UNL     1       5.896  12.009  -4.178  0.00  0.00    +0.045 A 
ATOM     17  S   UNL     1       6.473  10.720  -3.086  0.00  0.00    -0.100 S 
ENDBRANCH   4  13
BRANCH   1  18
ATOM     18  C   UNL     1       4.690   7.606  -0.066  0.00  0.00    +0.175 C 
BRANCH  18  19
ATOM     19  S   UNL     1       2.960   7.190  -0.396  0.00  0.00    -0.075 S 
BRANCH  19  23
ATOM     20  C   UNL     1       2.481   3.330  -0.004  0.00  0.00    +0.188 A 
ATOM     21  N   UNL     1       3.758   3.493   0.263  0.00  0.00    -0.126 NA
ATOM     22  N   UNL     1       4.071   4.736   0.167  0.00  0.00    -0.121 NA
ATOM     23  C   UNL     1       3.014   5.445  -0.159  0.00  0.00    +0.209 A 
ATOM     24  N   UNL     1       1.965   4.577  -0.280  0.00  0.00    -0.223 N 
BRANCH  20  27
ATOM     25  C   UNL     1       1.334  -0.271  -0.012  0.00  0.00    +0.008 A 
ATOM     26  C   UNL     1       2.228   0.775  -0.015  0.00  0.00    +0.019 A 
ATOM     27  C   UNL     1       1.742   2.058  -0.004  0.00  0.00    +0.058 A 
ATOM     28  S   UNL     1      -0.022   1.781   0.012  0.00  0.00    -0.093 S 
ATOM     29  C   UNL     1       0.002  -0.004   0.002  0.00  0.00    +0.046 A 
ENDBRANCH  20  27
BRANCH  24  30
ATOM     30  N   UNL     1       0.674   4.883  -0.605  0.00  0.00    -0.295 N 
ATOM     31  H   UNL     1       0.130   5.082   0.221  0.00  0.00    +0.163 HD
ATOM     32  H   UNL     1       0.638   5.654  -1.256  0.00  0.00    +0.163 HD
ENDBRANCH  24  30
ENDBRANCH  19  23
ENDBRANCH  18  19
ENDBRANCH   1  18
TORSDOF 7
