REMARK  Name = ZINC08958470
REMARK  16 active torsions:
REMARK  status: ('A' for Active; 'I' for Inactive)
REMARK    1  A    between atoms: C_1  and  C_2
REMARK    2  A    between atoms: C_4  and  C_36
REMARK    3  A    between atoms: N_8  and  C_32
REMARK    4  A    between atoms: N_10  and  C_11
REMARK    5  A    between atoms: C_11  and  C_13
REMARK    6  A    between atoms: C_16  and  S_19
REMARK    7  A    between atoms: S_19  and  N_22
REMARK    8  A    between atoms: N_22  and  C_23
REMARK    9  A    between atoms: N_22  and  C_27
REMARK   10  A    between atoms: C_23  and  C_24
REMARK   11  A    between atoms: C_24  and  C_25
REMARK   12  A    between atoms: C_27  and  C_28
REMARK   13  A    between atoms: C_28  and  C_29
REMARK   14  A    between atoms: C_32  and  C_33
REMARK   15  A    between atoms: C_33  and  O_34
REMARK   16  A    between atoms: O_34  and  C_35
REMARK                            x       y       z     vdW  Elec       q    Type
REMARK                         _______ _______ _______ _____ _____    ______ ____
ROOT
ATOM      1  C   UNL     1      -2.278  -0.366   0.022  0.00  0.00    +0.269 C 
ATOM      2  O   UNL     1      -2.471   0.838   0.030  0.00  0.00    -0.268 OA
ENDROOT
BRANCH   1  12
ATOM      3  C   UNL     1       5.955   1.588  -0.044  0.00  0.00    +0.044 C 
ATOM      4  C   UNL     1       4.456   1.737  -0.030  0.00  0.00    -0.048 A 
ATOM      5  C   UNL     1       3.899   3.005  -0.018  0.00  0.00    +0.008 A 
ATOM      6  C   UNL     1       2.521   3.138  -0.005  0.00  0.00    -0.034 A 
ATOM      7  C   UNL     1       1.731   2.013  -0.004  0.00  0.00    +0.042 A 
ATOM      8  C   UNL     1       2.266   0.717  -0.016  0.00  0.00    +0.058 A 
ATOM      9  C   UNL     1       3.666   0.612  -0.029  0.00  0.00    +0.030 A 
ATOM     10  N   UNL     1       1.330  -0.300  -0.012  0.00  0.00    -0.319 N 
ATOM     11  C   UNL     1       0.002  -0.004   0.002  0.00  0.00    +0.167 A 
ATOM     12  N   UNL     1      -1.029  -0.842   0.008  0.00  0.00    -0.152 NA
ATOM     13  S   UNL     1      -0.021   1.730   0.012  0.00  0.00    -0.052 S 
ATOM     14  C   UNL     1       1.892   4.507   0.009  0.00  0.00    +0.045 C 
BRANCH  10  15
ATOM     15  C   UNL     1       1.768  -1.698  -0.024  0.00  0.00    +0.152 C 
BRANCH  15  16
ATOM     16  C   UNL     1       1.906  -2.176  -1.471  0.00  0.00    +0.181 C 
BRANCH  16  17
ATOM     17  O   UNL     1       2.333  -3.540  -1.483  0.00  0.00    -0.381 OA
ATOM     18  C   UNL     1       2.494  -4.087  -2.793  0.00  0.00    +0.194 C 
ENDBRANCH  16  17
ENDBRANCH  15  16
ENDBRANCH  10  15
ENDBRANCH   1  12
BRANCH   1  19
ATOM     19  C   UNL     1      -3.427  -1.300   0.029  0.00  0.00    +0.039 A 
ATOM     20  C   UNL     1      -3.210  -2.678   0.014  0.00  0.00    +0.015 A 
ATOM     21  C   UNL     1      -4.284  -3.543   0.025  0.00  0.00    +0.029 A 
ATOM     22  C   UNL     1      -5.576  -3.046   0.040  0.00  0.00    +0.106 A 
ATOM     23  C   UNL     1      -5.798  -1.681   0.050  0.00  0.00    +0.029 A 
ATOM     24  C   UNL     1      -4.731  -0.806   0.044  0.00  0.00    +0.015 A 
BRANCH  22  25
ATOM     25  S   UNL     1      -6.943  -4.158   0.047  0.00  0.00    +0.061 S 
ATOM     26  O   UNL     1      -6.467  -5.383   0.587  0.00  0.00    -0.153 OA
ATOM     27  O   UNL     1      -8.038  -3.451   0.612  0.00  0.00    -0.153 OA
BRANCH  25  28
ATOM     28  N   UNL     1      -7.338  -4.458  -1.533  0.00  0.00    -0.175 NA
BRANCH  28  29
ATOM     29  C   UNL     1      -6.712  -5.576  -2.244  0.00  0.00    +0.124 C 
BRANCH  29  30
ATOM     30  C   UNL     1      -7.621  -6.804  -2.165  0.00  0.00    +0.135 C 
BRANCH  30  31
ATOM     31  C   UNL     1      -6.993  -7.926  -2.880  0.00  0.00    +0.064 C 
ATOM     32  N   UNL     1      -6.508  -8.793  -3.432  0.00  0.00    -0.197 NA
ENDBRANCH  30  31
ENDBRANCH  29  30
ENDBRANCH  28  29
BRANCH  28  33
ATOM     33  C   UNL     1      -8.313  -3.607  -2.219  0.00  0.00    +0.124 C 
BRANCH  33  34
ATOM     34  C   UNL     1      -7.577  -2.511  -2.992  0.00  0.00    +0.135 C 
BRANCH  34  35
ATOM     35  C   UNL     1      -8.557  -1.655  -3.682  0.00  0.00    +0.064 C 
ATOM     36  N   UNL     1      -9.313  -0.995  -4.213  0.00  0.00    -0.197 NA
ENDBRANCH  34  35
ENDBRANCH  33  34
ENDBRANCH  28  33
ENDBRANCH  25  28
ENDBRANCH  22  25
ENDBRANCH   1  19
TORSDOF 13
