REMARK  Name = ZINC17541156
REMARK  9 active torsions:
REMARK  status: ('A' for Active; 'I' for Inactive)
REMARK    1  A    between atoms: C_1  and  C_2
REMARK    2  A    between atoms: C_5  and  C_8
REMARK    3  A    between atoms: C_8  and  C_10
REMARK    4  A    between atoms: C_8  and  N_15
REMARK    5  A    between atoms: C_16  and  C_18
REMARK    6  A    between atoms: C_18  and  S_19
REMARK    7  A    between atoms: S_19  and  C_20
REMARK    8  A    between atoms: C_23  and  C_26
REMARK    9  A    between atoms: N_24  and  N_25
REMARK                            x       y       z     vdW  Elec       q    Type
REMARK                         _______ _______ _______ _____ _____    ______ ____
ROOT
ATOM      1  N   UNL     1      -0.721   1.571  -1.179  0.00  0.00    -0.303 N 
ATOM      2  C   UNL     1      -1.773   0.883  -1.664  0.00  0.00    +0.224 C 
ATOM      3  O   UNL     1      -2.134  -0.139  -1.118  0.00  0.00    -0.275 OA
ATOM      4  H   UNL     1      -0.433   2.388  -1.615  0.00  0.00    +0.150 HD
ENDROOT
BRANCH   1   5
ATOM      5  C   UNL     1      -0.013   1.086   0.008  0.00  0.00    +0.140 C 
BRANCH   5  10
ATOM      6  C   UNL     1       5.409   3.085  -0.035  0.00  0.00    +0.044 C 
ATOM      7  C   UNL     1       3.995   2.564  -0.023  0.00  0.00    -0.050 A 
ATOM      8  C   UNL     1       3.740   1.267   0.382  0.00  0.00    +0.004 A 
ATOM      9  C   UNL     1       2.443   0.789   0.392  0.00  0.00    +0.006 A 
ATOM     10  C   UNL     1       1.401   1.607  -0.003  0.00  0.00    -0.022 A 
ATOM     11  C   UNL     1       1.657   2.902  -0.413  0.00  0.00    +0.006 A 
ATOM     12  C   UNL     1       2.953   3.382  -0.418  0.00  0.00    +0.004 A 
ENDBRANCH   5  10
BRANCH   5  13
ATOM     13  C   UNL     1      -0.718   1.572   1.248  0.00  0.00    +0.014 A 
ATOM     14  C   UNL     1      -0.954   0.914   2.409  0.00  0.00    +0.013 A 
ATOM     15  C   UNL     1      -1.627   1.566   3.425  0.00  0.00    +0.008 A 
ATOM     16  C   UNL     1      -2.033   2.845   3.229  0.00  0.00    +0.045 A 
ATOM     17  S   UNL     1      -1.454   3.166   1.571  0.00  0.00    -0.099 S 
ENDBRANCH   5  13
ENDBRANCH   1   5
BRANCH   2  18
ATOM     18  C   UNL     1      -2.502   1.382  -2.885  0.00  0.00    +0.173 C 
BRANCH  18  19
ATOM     19  S   UNL     1      -3.856   0.249  -3.285  0.00  0.00    -0.075 S 
BRANCH  19  20
ATOM     20  C   UNL     1      -4.516   1.051  -4.708  0.00  0.00    +0.209 A 
ATOM     21  N   UNL     1      -4.080   2.165  -5.249  0.00  0.00    -0.121 NA
ATOM     22  N   UNL     1      -4.794   2.460  -6.276  0.00  0.00    -0.123 NA
ATOM     23  C   UNL     1      -5.725   1.565  -6.446  0.00  0.00    +0.255 A 
ATOM     24  N   UNL     1      -5.581   0.635  -5.454  0.00  0.00    -0.220 N 
BRANCH  23  25
ATOM     25  C   UNL     1      -6.766   1.555  -7.535  0.00  0.00    +0.454 C 
ATOM     26  F   UNL     1      -6.397   2.453  -8.542  0.00  0.00    -0.163 F 
ATOM     27  F   UNL     1      -6.867   0.267  -8.073  0.00  0.00    -0.163 F 
ATOM     28  F   UNL     1      -8.002   1.936  -7.002  0.00  0.00    -0.163 F 
ENDBRANCH  23  25
BRANCH  24  29
ATOM     29  N   UNL     1      -6.345  -0.479  -5.250  0.00  0.00    -0.295 N 
ATOM     30  H   UNL     1      -7.128  -0.276  -4.647  0.00  0.00    +0.163 HD
ATOM     31  H   UNL     1      -6.657  -0.869  -6.128  0.00  0.00    +0.163 HD
ENDBRANCH  24  29
ENDBRANCH  19  20
ENDBRANCH  18  19
ENDBRANCH   2  18
TORSDOF 8
