REMARK  Name = ZINC17445436
REMARK  3 active torsions:
REMARK  status: ('A' for Active; 'I' for Inactive)
REMARK    1  A    between atoms: C_6  and  C_7
REMARK    2  A    between atoms: N_9  and  N_10
REMARK    3  A    between atoms: C_11  and  C_13
REMARK                            x       y       z     vdW  Elec       q    Type
REMARK                         _______ _______ _______ _____ _____    ______ ____
ROOT
ATOM      1  N   UNL     1       1.193   1.683  -0.000  0.00  0.00    -0.230 N 
ATOM      2  C   UNL     1       2.369   1.025  -0.015  0.00  0.00    +0.267 C 
ATOM      3  O   UNL     1       2.385  -0.192  -0.022  0.00  0.00    -0.268 OA
ATOM      4  H   UNL     1       1.179   2.653   0.005  0.00  0.00    +0.173 HD
ENDROOT
BRANCH   2   5
ATOM      5  C   UNL     1       3.628   1.775  -0.023  0.00  0.00    +0.076 A 
ATOM      6  C   UNL     1       4.923   1.300  -0.038  0.00  0.00    +0.024 A 
ATOM      7  C   UNL     1       5.965   2.228  -0.043  0.00  0.00    -0.036 A 
ATOM      8  C   UNL     1       5.614   3.542  -0.031  0.00  0.00    -0.006 A 
ATOM      9  S   UNL     1       3.886   3.539  -0.024  0.00  0.00    -0.088 S 
ATOM     10  C   UNL     1       6.817   4.444  -0.033  0.00  0.00    +0.043 C 
ATOM     11  C   UNL     1       7.990   3.532   0.389  0.00  0.00    +0.010 C 
ATOM     12  C   UNL     1       7.494   2.145  -0.063  0.00  0.00    +0.036 C 
ENDBRANCH   2   5
BRANCH   1  15
ATOM     13  C   UNL     1      -1.187   1.624   0.017  0.00  0.00    +0.260 C 
ATOM     14  O   UNL     1      -1.204   2.839   0.023  0.00  0.00    -0.269 OA
ATOM     15  N   UNL     1      -0.011   0.966   0.007  0.00  0.00    -0.230 N 
ATOM     16  H   UNL     1       0.002  -0.004   0.002  0.00  0.00    +0.173 HD
BRANCH  13  22
ATOM     17  C   UNL     1      -2.441  -0.528   0.005  0.00  0.00    +0.014 A 
ATOM     18  C   UNL     1      -3.629  -1.229   0.013  0.00  0.00    +0.021 A 
ATOM     19  C   UNL     1      -4.837  -0.550   0.021  0.00  0.00    +0.041 A 
ATOM     20  C   UNL     1      -4.859   0.835   0.029  0.00  0.00    +0.021 A 
ATOM     21  C   UNL     1      -3.677   1.546   0.028  0.00  0.00    +0.014 A 
ATOM     22  C   UNL     1      -2.457   0.868   0.018  0.00  0.00    +0.038 A 
ATOM     23 CL   UNL     1      -6.328  -1.438   0.024  0.00  0.00    -0.084 Cl
ENDBRANCH  13  22
ENDBRANCH   1  15
TORSDOF 3
