REMARK  Name = ZINC65021812
REMARK  3 active torsions:
REMARK  status: ('A' for Active; 'I' for Inactive)
REMARK    1  A    between atoms: N_10  and  S_11
REMARK    2  A    between atoms: S_11  and  C_14
REMARK    3  A    between atoms: C_23  and  C_26
REMARK                            x       y       z     vdW  Elec       q    Type
REMARK                         _______ _______ _______ _____ _____    ______ ____
ROOT
ATOM      1  C   UNL     1       5.418   1.272   1.159  0.00  0.00    +0.111 A 
ATOM      2  C   UNL     1       5.070   2.538   1.592  0.00  0.00    +0.030 A 
ATOM      3  C   UNL     1       5.576   3.021   2.785  0.00  0.00    +0.018 A 
ATOM      4  C   UNL     1       6.432   2.236   3.540  0.00  0.00    +0.030 A 
ATOM      5  C   UNL     1       6.793   0.961   3.107  0.00  0.00    +0.049 A 
ATOM      6  C   UNL     1       6.267   0.483   1.910  0.00  0.00    +0.053 A 
ATOM      7  N   UNL     1       7.669   0.158   3.832  0.00  0.00    -0.283 N 
ATOM      8  C   UNL     1       8.486   0.551   4.804  0.00  0.00    +0.240 C 
ATOM      9  O   UNL     1       9.106  -0.294   5.413  0.00  0.00    -0.274 OA
ATOM     10  C   UNL     1       8.679   1.996   5.186  0.00  0.00    +0.223 C 
ATOM     11  S   UNL     1       7.073   2.843   5.070  0.00  0.00    -0.101 S 
ATOM     12  H   UNL     1       7.684  -0.785   3.605  0.00  0.00    +0.155 HD
ENDROOT
BRANCH  10  13
ATOM     13  C   UNL     1       9.665   2.640   4.246  0.00  0.00    +0.238 C 
ATOM     14  O   UNL     1       9.688   2.319   3.077  0.00  0.00    -0.274 OA
ATOM     15  N   UNL     1      10.522   3.575   4.705  0.00  0.00    -0.300 N 
ATOM     16  C   UNL     1      10.553   3.849   6.124  0.00  0.00    +0.108 C 
ATOM     17  C   UNL     1       9.528   4.959   6.462  0.00  0.00    +0.019 C 
ATOM     18  C   UNL     1       9.993   6.257   5.950  0.00  0.00    +0.002 C 
ATOM     19  C   UNL     1      10.133   6.321   4.432  0.00  0.00    +0.002 C 
ATOM     20  C   UNL     1      11.485   5.784   4.031  0.00  0.00    +0.019 C 
ATOM     21  C   UNL     1      11.393   4.271   3.738  0.00  0.00    +0.108 C 
ENDBRANCH  10  13
BRANCH   1  22
ATOM     22  S   UNL     1       4.767   0.656  -0.358  0.00  0.00    +0.075 S 
ATOM     23  O   UNL     1       5.669  -0.344  -0.811  0.00  0.00    -0.150 OA
ATOM     24  O   UNL     1       4.430   1.790  -1.145  0.00  0.00    -0.150 OA
BRANCH  22  34
ATOM     25  C   UNL     1      -0.191   2.074   0.247  0.00  0.00    +0.000 A 
ATOM     26  C   UNL     1       1.030   2.725   0.236  0.00  0.00    +0.002 A 
ATOM     27  C   UNL     1       2.198   1.995   0.154  0.00  0.00    +0.025 A 
ATOM     28  C   UNL     1       2.148   0.607   0.084  0.00  0.00    +0.054 A 
ATOM     29  C   UNL     1       0.925  -0.045   0.098  0.00  0.00    -0.025 A 
ATOM     30  C   UNL     1      -0.242   0.696   0.178  0.00  0.00    +0.005 A 
ATOM     31  C   UNL     1       0.833  -1.546   0.034  0.00  0.00    +0.038 C 
ATOM     32  C   UNL     1       2.119  -2.137  -0.545  0.00  0.00    +0.025 C 
ATOM     33  C   UNL     1       3.317  -1.565   0.222  0.00  0.00    +0.132 C 
ATOM     34  N   UNL     1       3.345  -0.114  -0.004  0.00  0.00    -0.203 N 
ENDBRANCH  22  34
ENDBRANCH   1  22
TORSDOF 3
