REMARK  Name = ZINC05043234
REMARK  5 active torsions:
REMARK  status: ('A' for Active; 'I' for Inactive)
REMARK    1  A    between atoms: C_1  and  C_2
REMARK    2  A    between atoms: C_13  and  C_23
REMARK    3  A    between atoms: C_21  and  O_22
REMARK    4  A    between atoms: C_23  and  O_25
REMARK    5  A    between atoms: O_25  and  C_26
REMARK                            x       y       z     vdW  Elec       q    Type
REMARK                         _______ _______ _______ _____ _____    ______ ____
ROOT
ATOM      1  C   UNL     1       2.532   0.191  -3.829  0.00  0.00    +0.035 C 
ATOM      2  C   UNL     1       2.542   1.008  -2.563  0.00  0.00    -0.032 C 
ATOM      3  C   UNL     1       2.321   0.429  -1.407  0.00  0.00    -0.083 C 
ATOM      4  C   UNL     1       2.079  -1.056  -1.436  0.00  0.00    -0.047 C 
ATOM      5  C   UNL     1       0.029  -2.232  -0.417  0.00  0.00    -0.077 C 
ATOM      6  C   UNL     1      -0.909  -1.192   0.336  0.00  0.00    -0.003 C 
ATOM      7  C   UNL     1       0.002  -0.004   0.002  0.00  0.00    +0.023 C 
ATOM      8  C   UNL     1       1.216  -0.618   0.666  0.00  0.00    -0.051 C 
ATOM      9  C   UNL     1       2.388   0.281   0.952  0.00  0.00    -0.001 C 
ATOM     10  C   UNL     1       2.349   1.322  -0.183  0.00  0.00    +0.050 C 
ATOM     11  C   UNL     1       1.101   2.177   0.003  0.00  0.00    +0.061 C 
ATOM     12  C   UNL     1      -0.017   1.420   0.010  0.00  0.00    +0.028 C 
ATOM     13  N   UNL     1      -1.285   1.790  -0.228  0.00  0.00    -0.314 N 
ATOM     14  C   UNL     1      -1.368   1.091  -1.458  0.00  0.00    +0.077 A 
ATOM     15  C   UNL     1      -0.446  -0.003  -1.452  0.00  0.00    -0.013 A 
ATOM     16  C   UNL     1      -0.289  -0.734  -2.585  0.00  0.00    +0.006 A 
ATOM     17  C   UNL     1      -0.985  -0.360  -3.738  0.00  0.00    +0.004 A 
ATOM     18  C   UNL     1      -1.881   0.685  -3.737  0.00  0.00    +0.047 A 
ATOM     19  C   UNL     1      -2.108   1.426  -2.582  0.00  0.00    +0.138 A 
ATOM     20  H   UNL     1      -1.939   2.332   0.242  0.00  0.00    +0.152 HD
ATOM     21  N   UNL     1       1.408  -1.653  -0.232  0.00  0.00    +0.385 N 
ATOM     22  H   UNL     1       2.023  -2.377   0.156  0.00  0.00    -0.081 HD
ENDROOT
BRANCH  19  23
ATOM     23  O   UNL     1      -3.008   2.447  -2.558  0.00  0.00    -0.505 OA
ATOM     24  H   UNL     1      -3.904   2.177  -2.313  0.00  0.00    +0.292 HD
ENDBRANCH  19  23
BRANCH  11  25
ATOM     25  C   UNL     1       1.113   3.587   0.152  0.00  0.00    +0.337 C 
ATOM     26  O   UNL     1       0.067   4.193   0.297  0.00  0.00    -0.245 OA
BRANCH  25  27
ATOM     27  O   UNL     1       2.284   4.258   0.132  0.00  0.00    -0.465 OA
ATOM     28  C   UNL     1       2.222   5.677   0.287  0.00  0.00    +0.280 C 
ENDBRANCH  25  27
ENDBRANCH  11  25
TORSDOF 3
