REMARK  Name = ZINC02155366
REMARK  10 active torsions:
REMARK  status: ('A' for Active; 'I' for Inactive)
REMARK    1  A    between atoms: C_1  and  C_2
REMARK    2  A    between atoms: C_2  and  C_3
REMARK    3  A    between atoms: C_3  and  C_4
REMARK    4  A    between atoms: C_4  and  CA_5
REMARK    5  A    between atoms: CA_5  and  C_7
REMARK    6  A    between atoms: CA_5  and  N_10
REMARK    7  A    between atoms: C_11  and  C_13
REMARK    8  A    between atoms: C_13  and  C_14
REMARK    9  A    between atoms: C_15  and  C_33
REMARK   10  A    between atoms: C_23  and  C_28
REMARK                            x       y       z     vdW  Elec       q    Type
REMARK                         _______ _______ _______ _____ _____    ______ ____
ROOT
ATOM      1  C   UNL     1       5.840  -1.470   4.790  0.00  0.00    +0.049 A 
ATOM      2  C   UNL     1       6.234  -2.614   5.407  0.00  0.00    -0.029 A 
ATOM      3  C   UNL     1       6.566  -2.545   6.833  0.00  0.00    +0.022 A 
ATOM      4  C   UNL     1       6.980  -3.684   7.523  0.00  0.00    +0.023 A 
ATOM      5  C   UNL     1       7.290  -3.590   8.873  0.00  0.00    +0.025 A 
ATOM      6  C   UNL     1       7.746  -4.538   9.890  0.00  0.00    +0.001 A 
ATOM      7  C   UNL     1       7.873  -3.846  11.033  0.00  0.00    +0.109 A 
ATOM      8  O   UNL     1       7.541  -2.560  10.827  0.00  0.00    -0.459 OA
ATOM      9  C   UNL     1       7.184  -2.351   9.542  0.00  0.00    +0.142 A 
ATOM     10  C   UNL     1       6.772  -1.224   8.849  0.00  0.00    +0.035 A 
ATOM     11  C   UNL     1       6.463  -1.307   7.501  0.00  0.00    +0.146 A 
ATOM     12  O   UNL     1       6.064  -0.206   6.830  0.00  0.00    -0.422 OA
ATOM     13  C   UNL     1       5.769  -0.269   5.526  0.00  0.00    +0.341 A 
ATOM     14  O   UNL     1       5.420   0.748   4.954  0.00  0.00    -0.245 OA
ATOM     15  C   UNL     1       6.660   0.098   9.564  0.00  0.00    +0.051 C 
ATOM     16  C   UNL     1       8.327  -4.465  12.336  0.00  0.00    +0.075 C 
ATOM     17  C   UNL     1       8.188  -5.987  12.228  0.00  0.00    +0.008 C 
ATOM     18  C   UNL     1       8.859  -6.472  10.939  0.00  0.00    +0.005 C 
ATOM     19  C   UNL     1       8.032  -6.007   9.733  0.00  0.00    +0.039 C 
ATOM     20  C   UNL     1       6.326  -3.913   4.649  0.00  0.00    +0.045 C 
ENDROOT
BRANCH   1  21
ATOM     21  C   UNL     1       5.486  -1.483   3.326  0.00  0.00    +0.138 C 
BRANCH  21  23
ATOM     22  N   UNL     1       3.454  -1.735   1.939  0.00  0.00    -0.302 N 
ATOM     23  C   UNL     1       4.002  -1.689   3.169  0.00  0.00    +0.218 C 
ATOM     24  O   UNL     1       3.300  -1.814   4.150  0.00  0.00    -0.275 OA
ATOM     25  H   UNL     1       4.015  -1.635   1.154  0.00  0.00    +0.150 HD
BRANCH  22  26
ATOM     26  CA  UNL     1       2.011  -1.936   1.786  0.00  0.00    +0.186 C 
BRANCH  26  27
ATOM     27  C   UNL     1       1.702  -3.411   1.821  0.00  0.00    +0.376 C 
ATOM     28  O   UNL     1       2.609  -4.224   1.777  0.00  0.00    -0.244 OA
ATOM     29  OXT UNL     1       0.546  -3.790   1.895  0.00  0.00    -0.244 OA
ENDBRANCH  26  27
BRANCH  26  30
ATOM     30  C   UNL     1       1.552  -1.351   0.449  0.00  0.00    +0.034 C 
BRANCH  30  31
ATOM     31  C   UNL     1       1.751   0.166   0.462  0.00  0.00    +0.002 C 
BRANCH  31  33
ATOM     32  C   UNL     1       1.491   2.269  -0.863  0.00  0.00    +0.004 C 
ATOM     33  C   UNL     1       1.293   0.752  -0.876  0.00  0.00    -0.003 C 
ENDBRANCH  31  33
ENDBRANCH  30  31
ENDBRANCH  26  30
ENDBRANCH  22  26
ENDBRANCH  21  23
ENDBRANCH   1  21
TORSDOF 7
