REMARK  Name = ZINC10187207
REMARK  5 active torsions:
REMARK  status: ('A' for Active; 'I' for Inactive)
REMARK    1  A    between atoms: C_8  and  C_10
REMARK    2  A    between atoms: C_13  and  N_16
REMARK    3  A    between atoms: C_17  and  C_19
REMARK    4  A    between atoms: N_24  and  S_25
REMARK    5  A    between atoms: S_25  and  C_28
REMARK                            x       y       z     vdW  Elec       q    Type
REMARK                         _______ _______ _______ _____ _____    ______ ____
ROOT
ATOM      1  N   UNL     1       5.303   0.278   2.864  0.00  0.00    -0.284 N 
ATOM      2  C   UNL     1       4.165  -0.218   2.338  0.00  0.00    +0.236 C 
ATOM      3  O   UNL     1       3.467   0.481   1.635  0.00  0.00    -0.274 OA
ATOM      4  H   UNL     1       5.831  -0.260   3.474  0.00  0.00    +0.155 HD
ENDROOT
BRANCH   1   8
ATOM      5  C   UNL     1       6.552   4.127   1.868  0.00  0.00    +0.037 A 
ATOM      6  C   UNL     1       6.789   3.624   3.150  0.00  0.00    +0.015 A 
ATOM      7  C   UNL     1       6.375   2.352   3.476  0.00  0.00    +0.024 A 
ATOM      8  C   UNL     1       5.721   1.568   2.530  0.00  0.00    +0.033 A 
ATOM      9  C   UNL     1       5.489   2.064   1.252  0.00  0.00    +0.024 A 
ATOM     10  C   UNL     1       5.896   3.338   0.921  0.00  0.00    +0.015 A 
BRANCH   5  18
ATOM     11  C   UNL     1       8.594   9.686   1.097  0.00  0.00    +0.002 A 
ATOM     12  C   UNL     1       8.084   9.527  -0.183  0.00  0.00    +0.004 A 
ATOM     13  C   UNL     1       7.466   8.350  -0.549  0.00  0.00    +0.048 A 
ATOM     14  C   UNL     1       7.354   7.314   0.366  0.00  0.00    +0.156 A 
ATOM     15  C   UNL     1       7.869   7.470   1.663  0.00  0.00    +0.110 A 
ATOM     16  C   UNL     1       8.492   8.669   2.019  0.00  0.00    +0.031 A 
ATOM     17  N   UNL     1       7.613   6.313   2.326  0.00  0.00    -0.209 NA
ATOM     18  C   UNL     1       6.996   5.491   1.515  0.00  0.00    +0.228 A 
ATOM     19  O   UNL     1       6.820   6.074   0.314  0.00  0.00    -0.435 OA
ENDBRANCH   5  18
ENDBRANCH   1   8
BRANCH   2  20
ATOM     20  C   UNL     1       3.761  -1.641   2.625  0.00  0.00    +0.166 C 
ATOM     21  C   UNL     1       2.624  -1.677   3.679  0.00  0.00    +0.031 C 
ATOM     22  C   UNL     1       1.958  -3.044   3.369  0.00  0.00    +0.019 C 
ATOM     23  C   UNL     1       2.078  -3.146   1.834  0.00  0.00    +0.110 C 
ATOM     24  N   UNL     1       3.176  -2.261   1.422  0.00  0.00    -0.164 NA
BRANCH  24  25
ATOM     25  S   UNL     1       3.679  -2.007  -0.136  0.00  0.00    +0.068 S 
ATOM     26  O   UNL     1       4.380  -0.771  -0.140  0.00  0.00    -0.152 OA
ATOM     27  O   UNL     1       2.553  -2.246  -0.969  0.00  0.00    -0.152 OA
BRANCH  25  28
ATOM     28  C   UNL     1       4.860  -3.259  -0.513  0.00  0.00    +0.144 A 
ATOM     29  C   UNL     1       4.652  -4.520  -0.962  0.00  0.00    +0.038 A 
ATOM     30  C   UNL     1       5.743  -5.338  -1.192  0.00  0.00    +0.030 A 
ATOM     31  C   UNL     1       6.989  -4.853  -0.961  0.00  0.00    +0.080 A 
ATOM     32  S   UNL     1       6.641  -3.194  -0.401  0.00  0.00    -0.057 S 
ATOM     33 CL   UNL     1       8.523  -5.639  -1.164  0.00  0.00    -0.076 Cl
ENDBRANCH  25  28
ENDBRANCH  24  25
ENDBRANCH   2  20
TORSDOF 5
