REMARK  Name = ZINC09462679
REMARK  9 active torsions:
REMARK  status: ('A' for Active; 'I' for Inactive)
REMARK    1  A    between atoms: C_1  and  C_2
REMARK    2  A    between atoms: C_7  and  C_13
REMARK    3  A    between atoms: C_13  and  N_14
REMARK    4  A    between atoms: N_14  and  C_15
REMARK    5  A    between atoms: C_21  and  C_23
REMARK    6  A    between atoms: C_26  and  C_29
REMARK    7  A    between atoms: C_29  and  C_30
REMARK    8  A    between atoms: C_29  and  C_31
REMARK    9  A    between atoms: C_29  and  C_32
REMARK                            x       y       z     vdW  Elec       q    Type
REMARK                         _______ _______ _______ _____ _____    ______ ____
ROOT
ATOM      1  N   UNL     1      -3.323   2.768   8.332  0.00  0.00    -0.290 N 
ATOM      2  C   UNL     1      -3.529   1.668   7.580  0.00  0.00    +0.247 C 
ATOM      3  O   UNL     1      -3.670   1.771   6.378  0.00  0.00    -0.270 OA
ENDROOT
BRANCH   1   4
ATOM      4  C   UNL     1      -2.257   2.779   9.337  0.00  0.00    +0.077 C 
ATOM      5  C   UNL     1      -1.105   1.889   8.868  0.00  0.00    +0.022 C 
ATOM      6  C   UNL     1       0.008   1.901   9.918  0.00  0.00    +0.002 C 
ATOM      7  C   UNL     1      -0.537   1.372  11.246  0.00  0.00    +0.000 C 
ATOM      8  C   UNL     1      -1.690   2.262  11.714  0.00  0.00    +0.002 C 
ATOM      9  C   UNL     1      -2.803   2.251  10.665  0.00  0.00    +0.022 C 
ENDBRANCH   1   4
BRANCH   2  10
ATOM     10  C   UNL     1      -3.585   0.336   8.220  0.00  0.00    +0.037 A 
ATOM     11  C   UNL     1      -2.798   0.063   9.339  0.00  0.00    +0.013 A 
ATOM     12  C   UNL     1      -2.858  -1.181   9.934  0.00  0.00    +0.005 A 
ATOM     13  C   UNL     1      -3.688  -2.159   9.416  0.00  0.00    -0.042 A 
ATOM     14  C   UNL     1      -4.466  -1.897   8.303  0.00  0.00    +0.005 A 
ATOM     15  C   UNL     1      -4.420  -0.655   7.702  0.00  0.00    +0.013 A 
BRANCH  13  16
ATOM     16  C   UNL     1      -3.744  -3.517  10.067  0.00  0.00    -0.013 C 
ATOM     17  C   UNL     1      -3.320  -4.585   9.057  0.00  0.00    +0.015 C 
ATOM     18  C   UNL     1      -2.797  -3.546  11.268  0.00  0.00    +0.015 C 
ATOM     19  C   UNL     1      -5.173  -3.799  10.538  0.00  0.00    +0.015 C 
ENDBRANCH  13  16
ENDBRANCH   2  10
BRANCH   1  20
ATOM     20  C   UNL     1      -4.165   3.952   8.143  0.00  0.00    +0.149 C 
BRANCH  20  27
ATOM     21  C   UNL     1      -1.558   8.376   2.104  0.00  0.00    +0.044 C 
ATOM     22  C   UNL     1      -2.218   7.461   3.104  0.00  0.00    -0.048 A 
ATOM     23  C   UNL     1      -3.335   6.721   2.723  0.00  0.00    +0.004 A 
ATOM     24  C   UNL     1      -3.949   5.882   3.602  0.00  0.00    +0.010 A 
ATOM     25  C   UNL     1      -3.458   5.768   4.912  0.00  0.00    -0.001 A 
ATOM     26  C   UNL     1      -4.070   4.914   5.851  0.00  0.00    +0.020 A 
ATOM     27  C   UNL     1      -3.542   4.851   7.107  0.00  0.00    +0.035 A 
ATOM     28  C   UNL     1      -2.421   5.624   7.431  0.00  0.00    +0.254 A 
ATOM     29  N   UNL     1      -1.854   6.420   6.551  0.00  0.00    -0.322 N 
ATOM     30  C   UNL     1      -2.326   6.523   5.303  0.00  0.00    +0.049 A 
ATOM     31  C   UNL     1      -1.716   7.375   4.366  0.00  0.00    +0.029 A 
ATOM     32  O   UNL     1      -1.907   5.551   8.684  0.00  0.00    -0.268 OA
ATOM     33  H   UNL     1      -0.974   7.016   6.834  0.00  0.00    +0.169 HD
ENDBRANCH  20  27
ENDBRANCH   1  20
TORSDOF 5
