REMARK  Name = ZINC39595248
REMARK  8 active torsions:
REMARK  status: ('A' for Active; 'I' for Inactive)
REMARK    1  A    between atoms: C_1  and  C_2
REMARK    2  A    between atoms: C_7  and  C_8
REMARK    3  A    between atoms: C_8  and  C_9
REMARK    4  A    between atoms: C_13  and  C_22
REMARK    5  A    between atoms: N_24  and  C_25
REMARK    6  A    between atoms: C_25  and  C_26
REMARK    7  A    between atoms: C_26  and  C_28
REMARK    8  A    between atoms: C_26  and  N_34
REMARK                            x       y       z     vdW  Elec       q    Type
REMARK                         _______ _______ _______ _____ _____    ______ ____
ROOT
ATOM      1  C   UNL     1      -0.745   0.183   3.137  0.00  0.00    +0.220 C 
ATOM      2  O   UNL     1      -1.626  -0.277   2.441  0.00  0.00    -0.275 OA
ATOM      3  N   UNL     1      -1.058   0.870   4.254  0.00  0.00    -0.300 N 
ATOM      4  C   UNL     1      -0.130   1.506   5.218  0.00  0.00    +0.121 C 
ATOM      5  C   UNL     1      -0.816   2.837   5.600  0.00  0.00    +0.100 C 
ATOM      6  C   UNL     1      -2.311   2.602   5.322  0.00  0.00    -0.004 C 
ATOM      7  C   UNL     1      -2.408   1.164   4.792  0.00  0.00    +0.115 C 
ATOM      8  C   UNL     1      -2.812   3.582   4.265  0.00  0.00    -0.010 C 
ATOM      9  C   UNL     1      -4.312   3.367   4.047  0.00  0.00    -0.082 C 
ATOM     10  N   UNL     1      -5.027   3.572   5.313  0.00  0.00    +0.379 N 
ATOM     11  C   UNL     1      -4.605   2.567   6.295  0.00  0.00    -0.082 C 
ATOM     12  C   UNL     1      -3.117   2.748   6.608  0.00  0.00    -0.010 C 
ATOM     13  H   UNL     1      -4.821   4.494   5.668  0.00  0.00    -0.086 HD
ATOM     14  H   UNL     1      -6.020   3.490   5.154  0.00  0.00    -0.086 HD
ENDROOT
BRANCH   5  15
ATOM     15  C   UNL     1      -0.292   3.962   4.745  0.00  0.00    +0.218 C 
ATOM     16  O   UNL     1       0.105   3.736   3.621  0.00  0.00    -0.275 OA
ATOM     17  N   UNL     1      -0.264   5.220   5.229  0.00  0.00    -0.316 N 
ATOM     18  H   UNL     1      -0.581   5.401   6.127  0.00  0.00    +0.149 HD
BRANCH  17  19
ATOM     19  C   UNL     1       0.246   6.313   4.398  0.00  0.00    +0.093 C 
BRANCH  19  20
ATOM     20  C   UNL     1       0.258   7.609   5.211  0.00  0.00    -0.019 C 
BRANCH  20  21
ATOM     21  C   UNL     1      -1.157   8.005   5.545  0.00  0.00    -0.041 A 
ATOM     22  C   UNL     1      -1.684   7.736   6.800  0.00  0.00    +0.005 A 
ATOM     23  C   UNL     1      -2.990   8.118   7.063  0.00  0.00    +0.020 A 
ATOM     24  C   UNL     1      -3.720   8.749   6.073  0.00  0.00    +0.111 A 
ATOM     25  N   UNL     1      -3.186   8.988   4.891  0.00  0.00    -0.263 NA
ATOM     26  C   UNL     1      -1.945   8.645   4.608  0.00  0.00    +0.112 A 
ENDBRANCH  20  21
BRANCH  20  27
ATOM     27  N   UNL     1       0.891   8.675   4.424  0.00  0.00    +0.385 N 
ATOM     28  C   UNL     1       0.946   9.932   5.214  0.00  0.00    -0.078 C 
ATOM     29  C   UNL     1       2.083  10.731   4.530  0.00  0.00    -0.020 C 
ATOM     30  C   UNL     1       3.108   9.633   4.165  0.00  0.00    -0.020 C 
ATOM     31  C   UNL     1       2.297   8.324   4.127  0.00  0.00    -0.078 C 
ATOM     32  H   UNL     1       0.382   8.825   3.566  0.00  0.00    -0.081 HD
ENDBRANCH  20  27
ENDBRANCH  19  20
ENDBRANCH  17  19
ENDBRANCH   5  15
BRANCH   1  33
ATOM     33  C   UNL     1       0.698  -0.013   2.752  0.00  0.00    +0.131 C 
BRANCH  33  40
ATOM     34  C   UNL     1       0.490   1.329   0.203  0.00  0.00    +0.044 C 
ATOM     35  C   UNL     1       0.674  -0.165   0.254  0.00  0.00    -0.047 A 
ATOM     36  C   UNL     1       0.750  -0.893  -0.919  0.00  0.00    +0.003 A 
ATOM     37  C   UNL     1       0.919  -2.264  -0.871  0.00  0.00    +0.000 A 
ATOM     38  C   UNL     1       1.014  -2.908   0.349  0.00  0.00    +0.000 A 
ATOM     39  C   UNL     1       0.939  -2.179   1.521  0.00  0.00    +0.004 A 
ATOM     40  C   UNL     1       0.774  -0.808   1.474  0.00  0.00    -0.036 A 
ENDBRANCH  33  40
ENDBRANCH   1  33
TORSDOF 7
