REMARK  Name = ZINC67140891
REMARK  8 active torsions:
REMARK  status: ('A' for Active; 'I' for Inactive)
REMARK    1  A    between atoms: C_1  and  C_2
REMARK    2  A    between atoms: C_2  and  C_4
REMARK    3  A    between atoms: C_2  and  N_14
REMARK    4  A    between atoms: C_7  and  S_10
REMARK    5  A    between atoms: S_10  and  N_13
REMARK    6  A    between atoms: N_14  and  C_15
REMARK    7  A    between atoms: C_16  and  C_18
REMARK    8  A    between atoms: C_21  and  C_23
REMARK                            x       y       z     vdW  Elec       q    Type
REMARK                         _______ _______ _______ _____ _____    ______ ____
ROOT
ATOM      1  C   UNL     1       0.302   1.334   0.372  0.00  0.00    +0.033 C 
ATOM      2  C   UNL     1       0.104  -0.143   0.029  0.00  0.00    +0.103 C 
ENDROOT
BRANCH   2   3
ATOM      3  C   UNL     1       0.831  -0.996   1.036  0.00  0.00    -0.027 A 
ATOM      4  C   UNL     1       2.210  -0.941   1.120  0.00  0.00    +0.007 A 
ATOM      5  C   UNL     1       2.878  -1.723   2.044  0.00  0.00    +0.029 A 
ATOM      6  C   UNL     1       2.166  -2.559   2.885  0.00  0.00    +0.105 A 
ATOM      7  C   UNL     1       0.787  -2.612   2.801  0.00  0.00    +0.029 A 
ATOM      8  C   UNL     1       0.120  -1.827   1.880  0.00  0.00    +0.007 A 
BRANCH   6   9
ATOM      9  S   UNL     1       3.017  -3.557   4.062  0.00  0.00    +0.056 S 
ATOM     10  O   UNL     1       2.164  -4.654   4.356  0.00  0.00    -0.153 OA
ATOM     11  O   UNL     1       4.338  -3.729   3.568  0.00  0.00    -0.153 OA
BRANCH   9  12
ATOM     12  N   UNL     1       3.145  -2.669   5.454  0.00  0.00    -0.204 NA
ATOM     13  H   UNL     1       2.777  -1.772   5.493  0.00  0.00    +0.144 HD
ATOM     14  H   UNL     1       3.587  -3.047   6.231  0.00  0.00    +0.144 HD
ENDBRANCH   9  12
ENDBRANCH   6   9
ENDBRANCH   2   3
BRANCH   2  15
ATOM     15  N   UNL     1       0.635  -0.409  -1.311  0.00  0.00    -0.297 N 
ATOM     16  C   UNL     1       2.016  -0.043  -1.637  0.00  0.00    +0.132 C 
ATOM     17  C   UNL     1      -0.146  -0.990  -2.243  0.00  0.00    +0.219 C 
ATOM     18  O   UNL     1      -1.289  -1.293  -1.973  0.00  0.00    -0.275 OA
BRANCH  17  19
ATOM     19  C   UNL     1       0.401  -1.263  -3.620  0.00  0.00    +0.083 C 
ATOM     20  C   UNL     1      -0.168  -0.445  -4.781  0.00  0.00    +0.022 C 
ATOM     21  C   UNL     1      -0.536  -1.923  -4.634  0.00  0.00    +0.032 C 
BRANCH  21  22
ATOM     22  C   UNL     1      -1.935  -2.250  -4.178  0.00  0.00    -0.041 A 
ATOM     23  C   UNL     1      -2.775  -1.240  -3.746  0.00  0.00    +0.004 A 
ATOM     24  C   UNL     1      -4.058  -1.538  -3.328  0.00  0.00    +0.003 A 
ATOM     25  C   UNL     1      -4.503  -2.847  -3.341  0.00  0.00    +0.038 A 
ATOM     26  C   UNL     1      -3.663  -3.859  -3.774  0.00  0.00    +0.124 A 
ATOM     27  C   UNL     1      -2.380  -3.558  -4.198  0.00  0.00    +0.042 A 
ATOM     28  F   UNL     1      -4.097  -5.138  -3.787  0.00  0.00    -0.205 F 
ENDBRANCH  21  22
ENDBRANCH  17  19
ENDBRANCH   2  15
TORSDOF 6
