REMARK  Name = ZINC34923953
REMARK  12 active torsions:
REMARK  status: ('A' for Active; 'I' for Inactive)
REMARK    1  A    between atoms: C_1  and  C_2
REMARK    2  A    between atoms: C_5  and  C_9
REMARK    3  A    between atoms: C_6  and  C_8
REMARK    4  A    between atoms: C_11  and  C_36
REMARK    5  A    between atoms: C_12  and  C_35
REMARK    6  A    between atoms: C_16  and  C_19
REMARK    7  A    between atoms: C_20  and  N_22
REMARK    8  A    between atoms: N_22  and  C_23
REMARK    9  A    between atoms: C_23  and  C_24
REMARK   10  A    between atoms: C_24  and  C_25
REMARK   11  A    between atoms: C_36  and  O_38
REMARK   12  A    between atoms: O_38  and  C_39
REMARK                            x       y       z     vdW  Elec       q    Type
REMARK                         _______ _______ _______ _____ _____    ______ ____
ROOT
ATOM      1  C   UNL     1       0.182  -4.493  -0.251  0.00  0.00    +0.150 C 
ATOM      2  C   UNL     1       1.634  -4.839  -0.007  0.00  0.00    +0.082 C 
ATOM      3  C   UNL     1       2.326  -5.467  -1.025  0.00  0.00    +0.053 C 
ATOM      4  N   UNL     1       1.726  -5.749  -2.169  0.00  0.00    -0.230 NA
ATOM      5  C   UNL     1       0.468  -5.475  -2.446  0.00  0.00    +0.166 C 
ATOM      6  N   UNL     1      -0.387  -4.858  -1.576  0.00  0.00    -0.267 N 
ATOM      7  C   UNL     1      -1.677  -4.639  -2.015  0.00  0.00    +0.048 C 
ATOM      8  C   UNL     1      -1.993  -5.050  -3.264  0.00  0.00    +0.072 C 
ATOM      9  S   UNL     1      -0.455  -5.751  -3.821  0.00  0.00    -0.060 S 
ATOM     10  C   UNL     1       3.775  -5.833  -0.829  0.00  0.00    +0.066 C 
ENDROOT
BRANCH   1  15
ATOM     11  C   UNL     1      -0.427   1.213   0.433  0.00  0.00    +0.044 C 
ATOM     12  C   UNL     1      -0.268  -0.275   0.255  0.00  0.00    -0.050 A 
ATOM     13  C   UNL     1       0.362  -0.773  -0.871  0.00  0.00    +0.004 A 
ATOM     14  C   UNL     1       0.507  -2.138  -1.034  0.00  0.00    +0.006 A 
ATOM     15  C   UNL     1       0.024  -3.005  -0.072  0.00  0.00    -0.019 A 
ATOM     16  C   UNL     1      -0.605  -2.507   1.053  0.00  0.00    -0.045 A 
ATOM     17  C   UNL     1      -0.747  -1.142   1.219  0.00  0.00    +0.007 A 
ATOM     18  C   UNL     1      -1.133  -3.452   2.102  0.00  0.00    +0.044 C 
ENDBRANCH   1  15
BRANCH   7  19
ATOM     19  C   UNL     1      -2.673  -3.983  -1.156  0.00  0.00    +0.091 C 
ATOM     20  C   UNL     1      -3.959  -3.912  -1.548  0.00  0.00    +0.239 C 
ATOM     21  O   UNL     1      -4.363  -4.561  -2.667  0.00  0.00    -0.271 OA
BRANCH  20  22
ATOM     22  N   UNL     1      -4.870  -3.177  -0.808  0.00  0.00    -0.311 N 
ATOM     23  H   UNL     1      -4.581  -2.713  -0.007  0.00  0.00    +0.149 HD
BRANCH  22  24
ATOM     24  C   UNL     1      -6.269  -3.101  -1.234  0.00  0.00    +0.109 C 
BRANCH  24  25
ATOM     25  C   UNL     1      -7.056  -2.233  -0.250  0.00  0.00    +0.056 C 
BRANCH  25  26
ATOM     26  C   UNL     1      -8.495  -2.154  -0.689  0.00  0.00    -0.021 A 
ATOM     27  C   UNL     1      -9.050  -1.189  -1.439  0.00  0.00    +0.087 A 
ATOM     28  N   UNL     1     -10.378  -1.455  -1.634  0.00  0.00    -0.360 N 
ATOM     29  H   UNL     1     -10.988  -0.900  -2.144  0.00  0.00    +0.165 HD
ATOM     30  C   UNL     1     -10.719  -2.627  -0.997  0.00  0.00    +0.047 A 
ATOM     31  C   UNL     1      -9.554  -3.120  -0.382  0.00  0.00    +0.003 A 
ATOM     32  C   UNL     1      -9.599  -4.314   0.340  0.00  0.00    +0.010 A 
ATOM     33  C   UNL     1     -10.776  -5.000   0.443  0.00  0.00    +0.001 A 
ATOM     34  C   UNL     1     -11.927  -4.520  -0.165  0.00  0.00    +0.002 A 
ATOM     35  C   UNL     1     -11.908  -3.339  -0.875  0.00  0.00    +0.026 A 
ENDBRANCH  25  26
ENDBRANCH  24  25
ENDBRANCH  22  24
ENDBRANCH  20  22
ENDBRANCH   7  19
BRANCH   2  36
ATOM     36  C   UNL     1       2.255  -4.534   1.210  0.00  0.00    +0.339 C 
ATOM     37  O   UNL     1       3.441  -4.772   1.365  0.00  0.00    -0.245 OA
BRANCH  36  38
ATOM     38  O   UNL     1       1.541  -3.975   2.212  0.00  0.00    -0.465 OA
ATOM     39  C   UNL     1       2.262  -3.587   3.384  0.00  0.00    +0.280 C 
ENDBRANCH  36  38
ENDBRANCH   2  36
TORSDOF 8
