REMARK  Name = ZINC13995769
REMARK  8 active torsions:
REMARK  status: ('A' for Active; 'I' for Inactive)
REMARK    1  A    between atoms: C_1  and  N_2
REMARK    2  A    between atoms: C_5  and  C_8
REMARK    3  A    between atoms: C_8  and  N_9
REMARK    4  A    between atoms: N_9  and  C_10
REMARK    5  A    between atoms: N_9  and  C_11
REMARK    6  A    between atoms: C_11  and  C_12
REMARK    7  A    between atoms: C_17  and  O_18
REMARK    8  A    between atoms: O_18  and  C_19
REMARK                            x       y       z     vdW  Elec       q    Type
REMARK                         _______ _______ _______ _____ _____    ______ ____
ROOT
ATOM      1  C   UNL     1       1.800  -6.610   1.066  0.00  0.00    +0.008 A 
ATOM      2  C   UNL     1       1.200  -7.275   0.018  0.00  0.00    +0.012 A 
ATOM      3  C   UNL     1       1.808  -8.384  -0.557  0.00  0.00    -0.044 A 
ATOM      4  C   UNL     1       3.023  -8.823  -0.079  0.00  0.00    -0.041 A 
ATOM      5  C   UNL     1       3.627  -8.158   0.979  0.00  0.00    +0.049 A 
ATOM      6  C   UNL     1       3.024  -7.050   1.549  0.00  0.00    +0.125 A 
ATOM      7  C   UNL     1       3.746 -10.007  -0.666  0.00  0.00    +0.035 C 
ATOM      8  C   UNL     1       2.789 -10.864  -1.493  0.00  0.00    +0.005 C 
ATOM      9  C   UNL     1       2.054  -9.952  -2.481  0.00  0.00    +0.005 C 
ATOM     10  C   UNL     1       1.091  -9.065  -1.694  0.00  0.00    +0.035 C 
ENDROOT
BRANCH   6  11
ATOM     11  O   UNL     1       3.624  -6.399   2.580  0.00  0.00    -0.495 OA
ATOM     12  C   UNL     1       4.883  -6.910   3.023  0.00  0.00    +0.277 C 
ENDBRANCH   6  11
BRANCH   1  13
ATOM     13  C   UNL     1       1.131  -5.407   1.681  0.00  0.00    +0.123 C 
BRANCH  13  14
ATOM     14  N   UNL     1       1.740  -4.182   1.145  0.00  0.00    -0.301 NA
ATOM     15  C   UNL     1       3.140  -4.060   1.571  0.00  0.00    +0.105 C 
BRANCH  14  16
ATOM     16  C   UNL     1       0.965  -2.996   1.534  0.00  0.00    +0.086 C 
BRANCH  16  21
ATOM     17  C   UNL     1      -0.018   1.465   0.010  0.00  0.00    -0.096 C 
ATOM     18  N   UNL     1       0.002  -0.004   0.002  0.00  0.00    +0.378 N 
ATOM     19  C   UNL     1       0.770  -0.499  -1.169  0.00  0.00    -0.079 C 
ATOM     20  C   UNL     1       1.175  -1.934  -0.746  0.00  0.00    -0.016 C 
ATOM     21  C   UNL     1       1.476  -1.778   0.762  0.00  0.00    -0.015 C 
ATOM     22  C   UNL     1       0.715  -0.511   1.195  0.00  0.00    -0.075 C 
ATOM     23  H   UNL     1      -0.940  -0.365  -0.020  0.00  0.00    -0.082 HD
ENDBRANCH  16  21
ENDBRANCH  14  16
ENDBRANCH  13  14
ENDBRANCH   1  13
TORSDOF 5
