REMARK  Name = ZINC24589667
REMARK  8 active torsions:
REMARK  status: ('A' for Active; 'I' for Inactive)
REMARK    1  A    between atoms: C_1  and  C_2
REMARK    2  A    between atoms: C_2  and  C_4
REMARK    3  A    between atoms: C_2  and  N_9
REMARK    4  A    between atoms: C_10  and  C_12
REMARK    5  A    between atoms: C_12  and  C_14
REMARK    6  A    between atoms: C_12  and  N_25
REMARK    7  A    between atoms: C_14  and  C_15
REMARK    8  A    between atoms: C_26  and  C_28
REMARK                            x       y       z     vdW  Elec       q    Type
REMARK                         _______ _______ _______ _____ _____    ______ ____
ROOT
ATOM      1  C   UNL     1       4.174   0.620   1.404  0.00  0.00    +0.163 C 
ENDROOT
BRANCH   1   3
ATOM      2  N   UNL     1       6.191  -0.810   1.328  0.00  0.00    -0.307 N 
ATOM      3  C   UNL     1       5.669   0.430   1.402  0.00  0.00    +0.234 C 
ATOM      4  O   UNL     1       6.402   1.394   1.467  0.00  0.00    -0.274 OA
ATOM      5  H   UNL     1       5.526  -1.684   1.269  0.00  0.00    +0.149 HD
BRANCH   2   7
ATOM      6  C   UNL     1       8.156  -1.024   2.767  0.00  0.00    +0.033 C 
ATOM      7  C   UNL     1       7.644  -0.995   1.326  0.00  0.00    +0.107 C 
BRANCH   7   8
ATOM      8  C   UNL     1       7.985  -2.295   0.645  0.00  0.00    +0.010 A 
ATOM      9  C   UNL     1       9.002  -2.572  -0.207  0.00  0.00    +0.013 A 
ATOM     10  C   UNL     1       9.122  -3.852  -0.715  0.00  0.00    +0.008 A 
ATOM     11  C   UNL     1       8.218  -4.793  -0.345  0.00  0.00    +0.045 A 
ATOM     12  S   UNL     1       7.158  -3.873   0.758  0.00  0.00    -0.100 S 
ENDBRANCH   7   8
ENDBRANCH   2   7
ENDBRANCH   1   3
BRANCH   1  13
ATOM     13  N   UNL     1       3.849   1.937   1.957  0.00  0.00    -0.299 N 
ATOM     14  C   UNL     1       4.318   3.052   1.363  0.00  0.00    +0.251 C 
ATOM     15  O   UNL     1       5.011   2.964   0.366  0.00  0.00    -0.270 OA
ATOM     16  H   UNL     1       3.223   2.016   2.858  0.00  0.00    +0.150 HD
BRANCH  14  17
ATOM     17  C   UNL     1       3.993   4.370   1.916  0.00  0.00    +0.074 A 
ATOM     18  C   UNL     1       4.370   5.624   1.464  0.00  0.00    +0.021 A 
ATOM     19  C   UNL     1       3.921   6.707   2.178  0.00  0.00    +0.008 A 
ATOM     20  C   UNL     1       3.144   6.503   3.274  0.00  0.00    +0.046 A 
ATOM     21  S   UNL     1       3.004   4.777   3.344  0.00  0.00    -0.092 S 
ENDBRANCH  14  17
ENDBRANCH   1  13
BRANCH   1  22
ATOM     22  C   UNL     1       3.646   0.524  -0.029  0.00  0.00    +0.069 C 
BRANCH  22  23
ATOM     23  C   UNL     1       2.140   0.591  -0.015  0.00  0.00    -0.020 A 
ATOM     24  C   UNL     1       1.295  -0.452  -0.013  0.00  0.00    +0.087 A 
ATOM     25  N   UNL     1       0.002  -0.004   0.002  0.00  0.00    -0.360 N 
ATOM     26  H   UNL     1      -0.829  -0.724   0.006  0.00  0.00    +0.165 HD
ATOM     27  C   UNL     1      -0.017   1.373   0.010  0.00  0.00    +0.047 A 
ATOM     28  C   UNL     1       1.322   1.806  -0.001  0.00  0.00    +0.003 A 
ATOM     29  C   UNL     1       1.612   3.171   0.004  0.00  0.00    +0.010 A 
ATOM     30  C   UNL     1       0.593   4.082   0.019  0.00  0.00    +0.001 A 
ATOM     31  C   UNL     1      -0.729   3.659   0.029  0.00  0.00    +0.002 A 
ATOM     32  C   UNL     1      -1.038   2.317   0.029  0.00  0.00    +0.026 A 
ENDBRANCH  22  23
ENDBRANCH   1  22
TORSDOF 7
