REMARK  Name = ZINC11873918
REMARK  9 active torsions:
REMARK  status: ('A' for Active; 'I' for Inactive)
REMARK    1  A    between atoms: C_1  and  C_2
REMARK    2  A    between atoms: C_2  and  C_27
REMARK    3  A    between atoms: C_8  and  C_10
REMARK    4  A    between atoms: C_10  and  C_11
REMARK    5  A    between atoms: C_10  and  C_12
REMARK    6  A    between atoms: C_10  and  C_13
REMARK    7  A    between atoms: C_14  and  N_17
REMARK    8  A    between atoms: N_17  and  S_18
REMARK    9  A    between atoms: S_18  and  C_21
REMARK                            x       y       z     vdW  Elec       q    Type
REMARK                         _______ _______ _______ _____ _____    ______ ____
ROOT
ATOM      1  C   UNL     1       3.488   5.692   5.652  0.00  0.00    +0.011 C 
ATOM      2  C   UNL     1       3.234   4.545   4.672  0.00  0.00    -0.028 C 
ATOM      3  C   UNL     1       2.605   3.366   5.414  0.00  0.00    +0.062 C 
ATOM      4  C   UNL     1       2.143   2.319   4.438  0.00  0.00    +0.050 A 
ATOM      5  C   UNL     1       1.955   2.583   3.099  0.00  0.00    +0.011 A 
ATOM      6  C   UNL     1       1.512   1.554   2.276  0.00  0.00    +0.119 A 
ATOM      7  N   UNL     1       1.289   0.360   2.797  0.00  0.00    -0.239 NA
ATOM      8  C   UNL     1       1.483   0.141   4.082  0.00  0.00    +0.135 A 
ATOM      9  N   UNL     1       1.900   1.093   4.890  0.00  0.00    -0.236 NA
ATOM     10  C   UNL     1       2.211   3.935   2.492  0.00  0.00    +0.110 C 
ATOM     11  C   UNL     1       2.262   5.007   3.580  0.00  0.00    +0.032 C 
ATOM     12  C   UNL     1       4.556   4.108   4.039  0.00  0.00    +0.011 C 
ENDROOT
BRANCH   8  13
ATOM     13  C   UNL     1       1.220  -1.234   4.641  0.00  0.00    +0.022 C 
ATOM     14  C   UNL     1       0.139  -1.148   5.720  0.00  0.00    +0.019 C 
ATOM     15  C   UNL     1       0.748  -2.159   3.518  0.00  0.00    +0.019 C 
ATOM     16  C   UNL     1       2.508  -1.790   5.253  0.00  0.00    +0.019 C 
ENDBRANCH   8  13
BRANCH  10  17
ATOM     17  N   UNL     1       1.137   4.253   1.548  0.00  0.00    -0.182 NA
ATOM     18  H   UNL     1       0.227   3.974   1.737  0.00  0.00    +0.149 HD
BRANCH  17  19
ATOM     19  S   UNL     1       1.475   5.090   0.160  0.00  0.00    +0.060 S 
ATOM     20  O   UNL     1       2.216   6.239   0.548  0.00  0.00    -0.153 OA
ATOM     21  O   UNL     1       0.258   5.178  -0.568  0.00  0.00    -0.153 OA
BRANCH  19  22
ATOM     22  C   UNL     1       2.564   4.089  -0.799  0.00  0.00    +0.123 A 
ATOM     23  C   UNL     1       2.059   3.105  -1.635  0.00  0.00    +0.031 A 
ATOM     24  C   UNL     1       2.953   2.342  -2.370  0.00  0.00    +0.022 A 
ATOM     25  C   UNL     1       4.308   2.585  -2.246  0.00  0.00    +0.111 A 
ATOM     26  N   UNL     1       4.752   3.530  -1.440  0.00  0.00    -0.261 NA
ATOM     27  C   UNL     1       3.931   4.275  -0.726  0.00  0.00    +0.139 A 
ENDBRANCH  19  22
ENDBRANCH  17  19
ENDBRANCH  10  17
TORSDOF 4
