REMARK  Name = ZINC13500477
REMARK  14 active torsions:
REMARK  status: ('A' for Active; 'I' for Inactive)
REMARK    1  A    between atoms: C_1  and  C_2
REMARK    2  A    between atoms: C_12  and  C_14
REMARK    3  A    between atoms: C_14  and  N_15
REMARK    4  A    between atoms: N_15  and  C_16
REMARK    5  A    between atoms: N_15  and  C_22
REMARK    6  A    between atoms: C_16  and  C_17
REMARK    7  A    between atoms: C_22  and  C_24
REMARK    8  A    between atoms: C_22  and  C_38
REMARK    9  A    between atoms: N_28  and  C_29
REMARK   10  A    between atoms: C_29  and  C_30
REMARK   11  A    between atoms: C_33  and  O_36
REMARK   12  A    between atoms: O_36  and  C_37
REMARK   13  A    between atoms: C_38  and  C_39
REMARK   14  A    between atoms: C_38  and  C_40
REMARK                            x       y       z     vdW  Elec       q    Type
REMARK                         _______ _______ _______ _____ _____    ______ ____
ROOT
ATOM      1  N   UNL     1       2.068  -3.713   5.344  0.00  0.00    -0.283 NA
ENDROOT
BRANCH   1   2
ATOM      2  C   UNL     1       3.150  -2.909   4.760  0.00  0.00    +0.126 C 
BRANCH   2  14
ATOM      3  C   UNL     1       5.911  -6.436  -0.051  0.00  0.00    +0.046 C 
ATOM      4  C   UNL     1       4.890  -5.328  -0.089  0.00  0.00    -0.026 A 
ATOM      5  C   UNL     1       4.375  -4.903  -1.295  0.00  0.00    +0.005 A 
ATOM      6  C   UNL     1       3.435  -3.883  -1.344  0.00  0.00    +0.001 A 
ATOM      7  C   UNL     1       3.002  -3.281  -0.196  0.00  0.00    +0.010 A 
ATOM      8  C   UNL     1       3.511  -3.696   1.039  0.00  0.00    -0.001 A 
ATOM      9  C   UNL     1       4.461  -4.734   1.093  0.00  0.00    +0.052 A 
ATOM     10  N   UNL     1       4.955  -5.142   2.313  0.00  0.00    -0.322 N 
ATOM     11  H   UNL     1       5.613  -5.855   2.348  0.00  0.00    +0.169 HD
ATOM     12  C   UNL     1       4.541  -4.566   3.455  0.00  0.00    +0.254 A 
ATOM     13  O   UNL     1       5.000  -4.952   4.516  0.00  0.00    -0.268 OA
ATOM     14  C   UNL     1       3.587  -3.526   3.456  0.00  0.00    +0.031 A 
ATOM     15  C   UNL     1       3.070  -3.072   2.288  0.00  0.00    +0.020 A 
ENDBRANCH   2  14
ENDBRANCH   1   2
BRANCH   1  16
ATOM     16  C   UNL     1       0.861  -3.657   4.510  0.00  0.00    +0.128 C 
BRANCH  16  17
ATOM     17  C   UNL     1      -0.035  -4.822   4.842  0.00  0.00    +0.004 A 
ATOM     18  C   UNL     1      -1.135  -4.855   5.634  0.00  0.00    +0.012 A 
ATOM     19  C   UNL     1      -1.809  -6.050   5.796  0.00  0.00    +0.008 A 
ATOM     20  C   UNL     1      -1.350  -7.155   5.159  0.00  0.00    +0.045 A 
ATOM     21  S   UNL     1       0.073  -6.517   4.290  0.00  0.00    -0.100 S 
ENDBRANCH  16  17
ENDBRANCH   1  16
BRANCH   1  22
ATOM     22  C   UNL     1       1.778  -3.286   6.719  0.00  0.00    +0.130 C 
BRANCH  22  23
ATOM     23  C   UNL     1       3.056  -2.854   7.391  0.00  0.00    +0.169 A 
ATOM     24  N   UNL     1       4.088  -3.612   7.670  0.00  0.00    -0.112 NA
ATOM     25  N   UNL     1       4.979  -2.877   8.242  0.00  0.00    -0.023 NA
ATOM     26  N   UNL     1       4.541  -1.670   8.335  0.00  0.00    -0.044 NA
ATOM     27  N   UNL     1       3.360  -1.614   7.817  0.00  0.00    -0.223 N 
BRANCH  27  28
ATOM     28  C   UNL     1       2.510  -0.425   7.715  0.00  0.00    +0.182 C 
BRANCH  28  29
ATOM     29  C   UNL     1       1.733  -0.253   8.995  0.00  0.00    -0.026 A 
ATOM     30  C   UNL     1       0.521  -0.899   9.159  0.00  0.00    +0.009 A 
ATOM     31  C   UNL     1      -0.193  -0.742  10.331  0.00  0.00    +0.046 A 
ATOM     32  C   UNL     1       0.305   0.065  11.343  0.00  0.00    +0.120 A 
ATOM     33  C   UNL     1       1.521   0.712  11.176  0.00  0.00    +0.046 A 
ATOM     34  C   UNL     1       2.235   0.548  10.004  0.00  0.00    +0.009 A 
BRANCH  32  35
ATOM     35  O   UNL     1      -0.396   0.222  12.496  0.00  0.00    -0.495 OA
ATOM     36  C   UNL     1       0.178   1.067  13.495  0.00  0.00    +0.277 C 
ENDBRANCH  32  35
ENDBRANCH  28  29
ENDBRANCH  27  28
ENDBRANCH  22  23
BRANCH  22  37
ATOM     37  C   UNL     1       1.161  -4.451   7.496  0.00  0.00    +0.008 C 
ATOM     38  C   UNL     1       2.123  -5.641   7.478  0.00  0.00    +0.009 C 
ATOM     39  C   UNL     1       0.909  -4.022   8.943  0.00  0.00    +0.009 C 
ENDBRANCH  22  37
ENDBRANCH   1  22
TORSDOF 10
