REMARK  Name = ZINC01424596
REMARK  1 active torsions:
REMARK  status: ('A' for Active; 'I' for Inactive)
REMARK    1  A    between atoms: N_28  and  C_29
REMARK                            x       y       z     vdW  Elec       q    Type
REMARK                         _______ _______ _______ _____ _____    ______ ____
ROOT
ATOM      1  C   UNL     1       1.067   2.571   2.215  0.00  0.00    +0.007 A 
ATOM      2  C   UNL     1      -0.099   1.940   1.769  0.00  0.00    +0.022 A 
ATOM      3  C   UNL     1      -0.329   1.770   0.440  0.00  0.00    +0.027 A 
ATOM      4  N   UNL     1       0.537   2.260  -0.476  0.00  0.00    -0.312 N 
ATOM      5  C   UNL     1       1.710   2.806  -0.070  0.00  0.00    +0.251 A 
ATOM      6  O   UNL     1       2.541   3.138  -0.900  0.00  0.00    -0.268 OA
ATOM      7  C   UNL     1       1.979   2.994   1.293  0.00  0.00    +0.070 A 
ATOM      8  C   UNL     1       0.275   2.253  -1.916  0.00  0.00    +0.130 C 
ATOM      9  C   UNL     1      -0.834   1.290  -2.299  0.00  0.00    +0.027 C 
ATOM     10  C   UNL     1      -2.022   1.478  -1.352  0.00  0.00    +0.018 C 
ATOM     11  C   UNL     1      -1.579   1.017   0.042  0.00  0.00    +0.054 C 
ATOM     12  C   UNL     1      -1.211  -0.473  -0.046  0.00  0.00    +0.117 C 
ATOM     13  N   UNL     1      -0.043  -0.601  -0.931  0.00  0.00    -0.299 N 
ATOM     14  C   UNL     1      -0.360  -0.155  -2.292  0.00  0.00    +0.113 C 
ATOM     15  C   UNL     1       0.436  -1.895  -0.933  0.00  0.00    +0.224 A 
ATOM     16  N   UNL     1       0.551  -2.560  -2.079  0.00  0.00    -0.181 NA
ATOM     17  C   UNL     1       1.013  -3.806  -2.082  0.00  0.00    +0.225 A 
ATOM     18  N   UNL     1       1.360  -4.388  -0.938  0.00  0.00    -0.181 NA
ATOM     19  C   UNL     1       1.245  -3.724   0.207  0.00  0.00    +0.224 A 
ATOM     20  N   UNL     1       0.788  -2.476   0.209  0.00  0.00    -0.181 NA
ATOM     21  N   UNL     1       1.606  -4.329   1.395  0.00  0.00    -0.299 N 
ATOM     22  C   UNL     1       0.503  -4.253   2.387  0.00  0.00    +0.108 C 
ATOM     23  C   UNL     1       0.851  -5.382   3.390  0.00  0.00    +0.020 C 
ATOM     24  C   UNL     1       1.415  -6.495   2.476  0.00  0.00    +0.020 C 
ATOM     25  C   UNL     1       1.871  -5.771   1.196  0.00  0.00    +0.108 C 
ATOM     26  N   UNL     1       1.133  -4.496  -3.273  0.00  0.00    -0.283 N 
ATOM     27  H   UNL     1       0.805  -4.102  -4.096  0.00  0.00    +0.155 HD
ENDROOT
BRANCH  26  28
ATOM     28  C   UNL     1       1.726  -5.763  -3.291  0.00  0.00    +0.034 A 
ATOM     29  C   UNL     1       2.760  -6.059  -2.412  0.00  0.00    +0.025 A 
ATOM     30  C   UNL     1       3.340  -7.312  -2.428  0.00  0.00    +0.022 A 
ATOM     31  C   UNL     1       2.899  -8.269  -3.325  0.00  0.00    +0.041 A 
ATOM     32  C   UNL     1       1.873  -7.974  -4.206  0.00  0.00    +0.022 A 
ATOM     33  C   UNL     1       1.285  -6.725  -4.190  0.00  0.00    +0.025 A 
ATOM     34 CL   UNL     1       3.635  -9.841  -3.347  0.00  0.00    -0.084 Cl
ENDBRANCH  26  28
TORSDOF 1
