REMARK  Name = ZINC38115522
REMARK  8 active torsions:
REMARK  status: ('A' for Active; 'I' for Inactive)
REMARK    1  A    between atoms: C_1  and  C_2
REMARK    2  A    between atoms: C_2  and  C_3
REMARK    3  A    between atoms: C_2  and  N_4
REMARK    4  A    between atoms: N_4  and  C_5
REMARK    5  A    between atoms: C_5  and  C_6
REMARK    6  A    between atoms: C_5  and  C_7
REMARK    7  A    between atoms: C_5  and  C_9
REMARK    8  A    between atoms: C_7  and  O_8
REMARK                            x       y       z     vdW  Elec       q    Type
REMARK                         _______ _______ _______ _____ _____    ______ ____
ROOT
ATOM      1  C   UNL     1      -2.418  -0.391   1.046  0.00  0.00    +0.012 C 
ATOM      2  C   UNL     1      -2.159   0.656  -0.040  0.00  0.00    +0.000 C 
ENDROOT
BRANCH   1   3
ATOM      3  C   UNL     1      -3.849  -0.856   0.964  0.00  0.00    +0.097 A 
ATOM      4  C   UNL     1      -4.821  -0.232   0.284  0.00  0.00    +0.052 A 
ATOM      5  C   UNL     1      -6.036  -1.031   0.482  0.00  0.00    +0.021 A 
ATOM      6  C   UNL     1      -7.356  -0.920   0.048  0.00  0.00    +0.027 A 
ATOM      7  C   UNL     1      -8.279  -1.870   0.426  0.00  0.00    +0.019 A 
ATOM      8  C   UNL     1      -7.899  -2.931   1.237  0.00  0.00    +0.019 A 
ATOM      9  C   UNL     1      -6.597  -3.051   1.673  0.00  0.00    +0.048 A 
ATOM     10  C   UNL     1      -5.651  -2.104   1.302  0.00  0.00    +0.135 A 
ATOM     11  O   UNL     1      -4.335  -1.959   1.558  0.00  0.00    -0.461 OA
ATOM     12 BR   UNL     1     -10.072  -1.728  -0.159  0.00  0.00    -0.050 Br
ENDBRANCH   1   3
BRANCH   1  13
ATOM     13  N   UNL     1      -1.519  -1.535   0.847  0.00  0.00    +0.390 N 
ATOM     14  H   UNL     1      -1.770  -2.275   1.487  0.00  0.00    -0.084 HD
ATOM     15  H   UNL     1      -0.567  -1.249   1.021  0.00  0.00    -0.084 HD
BRANCH  13  17
ATOM     16  C   UNL     1      -0.574  -3.084  -0.797  0.00  0.00    -0.014 C 
ATOM     17  C   UNL     1      -1.641  -2.020  -0.534  0.00  0.00    -0.077 C 
ATOM     18  C   UNL     1      -3.029  -2.628  -0.740  0.00  0.00    -0.014 C 
ENDBRANCH  13  17
ENDBRANCH   1  13
BRANCH   1  19
ATOM     19  C   UNL     1      -2.160   0.228   2.422  0.00  0.00    +0.151 C 
BRANCH  19  20
ATOM     20  O   UNL     1      -2.415  -0.746   3.437  0.00  0.00    -0.396 OA
ATOM     21  H   UNL     1      -2.271  -0.423   4.337  0.00  0.00    +0.209 HD
ENDBRANCH  19  20
ENDBRANCH   1  19
TORSDOF 5
