REMARK  Name = ZINC13656368
REMARK  8 active torsions:
REMARK  status: ('A' for Active; 'I' for Inactive)
REMARK    1  A    between atoms: C_1  and  O_2
REMARK    2  A    between atoms: O_2  and  C_3
REMARK    3  A    between atoms: C_6  and  C_9
REMARK    4  A    between atoms: C_9  and  C_11
REMARK    5  A    between atoms: C_9  and  N_24
REMARK    6  A    between atoms: C_16  and  O_17
REMARK    7  A    between atoms: C_21  and  O_22
REMARK    8  A    between atoms: O_22  and  C_23
REMARK                            x       y       z     vdW  Elec       q    Type
REMARK                         _______ _______ _______ _____ _____    ______ ____
ROOT
ATOM      1  C   UNL     1      -1.338   2.113   0.020  0.00  0.00    +0.121 C 
ENDROOT
BRANCH   1   2
ATOM      2  C   UNL     1      -0.017   1.388   0.010  0.00  0.00    +0.016 A 
ATOM      3  C   UNL     1       0.002  -0.004   0.002  0.00  0.00    +0.010 A 
ATOM      4  C   UNL     1       1.178  -0.690  -0.013  0.00  0.00    +0.012 A 
ATOM      5  C   UNL     1       2.395   0.011  -0.021  0.00  0.00    +0.027 A 
ATOM      6  C   UNL     1       2.382   1.428  -0.013  0.00  0.00    +0.027 A 
ATOM      7  C   UNL     1       1.146   2.106   0.002  0.00  0.00    +0.130 A 
ATOM      8  C   UNL     1       3.598   2.129  -0.020  0.00  0.00    +0.012 A 
ATOM      9  C   UNL     1       4.774   1.443  -0.034  0.00  0.00    +0.004 A 
ATOM     10  C   UNL     1       4.793   0.051  -0.043  0.00  0.00    +0.046 A 
ATOM     11  C   UNL     1       3.630  -0.667  -0.037  0.00  0.00    +0.128 A 
BRANCH   7  12
ATOM     12  O   UNL     1       1.111   3.464   0.010  0.00  0.00    -0.506 OA
ATOM     13  H   UNL     1       2.049   4.038   0.004  0.00  0.00    +0.292 HD
ENDBRANCH   7  12
BRANCH  11  14
ATOM     14  O   UNL     1       3.665  -2.025  -0.044  0.00  0.00    -0.495 OA
ATOM     15  C   UNL     1       4.954  -2.641  -0.060  0.00  0.00    +0.277 C 
ENDBRANCH  11  14
ENDBRANCH   1   2
BRANCH   1  19
ATOM     16  C   UNL     1      -2.232   3.391   3.999  0.00  0.00    +0.120 A 
ATOM     17  C   UNL     1      -1.705   4.289   3.082  0.00  0.00    +0.046 A 
ATOM     18  C   UNL     1      -1.417   3.874   1.797  0.00  0.00    +0.009 A 
ATOM     19  C   UNL     1      -1.653   2.564   1.423  0.00  0.00    -0.026 A 
ATOM     20  C   UNL     1      -2.183   1.668   2.333  0.00  0.00    +0.009 A 
ATOM     21  C   UNL     1      -2.467   2.077   3.622  0.00  0.00    +0.046 A 
BRANCH  16  23
ATOM     22  C   UNL     1      -3.056   2.818   6.154  0.00  0.00    +0.277 C 
ATOM     23  O   UNL     1      -2.516   3.797   5.264  0.00  0.00    -0.495 OA
ENDBRANCH  16  23
ENDBRANCH   1  19
BRANCH   1  24
ATOM     24  N   UNL     1      -2.396   1.211  -0.454  0.00  0.00    -0.287 NA
ATOM     25  C   UNL     1      -2.079   0.682  -1.788  0.00  0.00    +0.113 C 
ATOM     26  C   UNL     1      -3.175  -0.297  -2.217  0.00  0.00    +0.175 C 
ATOM     27  O   UNL     1      -4.440   0.368  -2.184  0.00  0.00    -0.377 OA
ATOM     28  C   UNL     1      -4.781   0.894  -0.899  0.00  0.00    +0.175 C 
ATOM     29  C   UNL     1      -3.702   1.886  -0.457  0.00  0.00    +0.113 C 
ENDBRANCH   1  24
TORSDOF 6
