REMARK  Name = ZINC23269318
REMARK  5 active torsions:
REMARK  status: ('A' for Active; 'I' for Inactive)
REMARK    1  A    between atoms: C_1  and  C_2
REMARK    2  A    between atoms: C_3  and  C_24
REMARK    3  A    between atoms: C_8  and  C_10
REMARK    4  A    between atoms: C_10  and  N_11
REMARK    5  A    between atoms: N_20  and  C_23
REMARK                            x       y       z     vdW  Elec       q    Type
REMARK                         _______ _______ _______ _____ _____    ______ ____
ROOT
ATOM      1  C   UNL     1       3.205   6.148   6.789  0.00  0.00    +0.054 C 
ATOM      2  C   UNL     1       3.062   6.072   5.291  0.00  0.00    +0.016 A 
ATOM      3  C   UNL     1       3.298   7.028   4.342  0.00  0.00    +0.083 A 
ATOM      4  N   UNL     1       3.102   6.738   3.065  0.00  0.00    -0.224 NA
ATOM      5  C   UNL     1       2.684   5.544   2.689  0.00  0.00    +0.165 A 
ATOM      6  S   UNL     1       2.529   4.710   4.263  0.00  0.00    -0.057 S 
ATOM      7  N   UNL     1       2.426   5.064   1.411  0.00  0.00    -0.263 N 
ATOM      8  C   UNL     1       2.000   3.797   1.240  0.00  0.00    +0.237 C 
ATOM      9  O   UNL     1       1.842   3.076   2.202  0.00  0.00    -0.274 OA
ATOM     10  H   UNL     1       2.569   5.719   0.539  0.00  0.00    +0.157 HD
ENDROOT
BRANCH   3  11
ATOM     11  C   UNL     1       3.769   8.377   4.740  0.00  0.00    +0.001 A 
ATOM     12  C   UNL     1       3.317   8.955   5.926  0.00  0.00    +0.011 A 
ATOM     13  C   UNL     1       3.762  10.208   6.293  0.00  0.00    +0.016 A 
ATOM     14  C   UNL     1       4.648  10.896   5.482  0.00  0.00    +0.018 A 
ATOM     15  C   UNL     1       5.096  10.329   4.301  0.00  0.00    +0.016 A 
ATOM     16  C   UNL     1       4.661   9.075   3.927  0.00  0.00    +0.011 A 
ATOM     17 BR   UNL     1       5.247  12.617   5.988  0.00  0.00    -0.050 Br
ENDBRANCH   3  11
BRANCH   8  18
ATOM     18  C   UNL     1       1.720   3.277  -0.147  0.00  0.00    +0.214 C 
BRANCH  18  19
ATOM     19  N   UNL     1       1.273   1.885  -0.065  0.00  0.00    -0.215 N 
ATOM     20  C   UNL     1      -0.016   1.508   0.062  0.00  0.00    +0.247 C 
ATOM     21  O   UNL     1      -0.989   2.229   0.123  0.00  0.00    -0.273 OA
ATOM     22  C   UNL     1       0.007  -0.003   0.104  0.00  0.00    +0.115 C 
ATOM     23  C   UNL     1      -0.778  -0.580  -1.069  0.00  0.00    +0.035 C 
ATOM     24  C   UNL     1      -0.717  -2.109  -1.024  0.00  0.00    +0.003 C 
ATOM     25  C   UNL     1      -1.306  -2.603   0.299  0.00  0.00    +0.000 C 
ATOM     26  C   UNL     1      -0.494  -2.035   1.464  0.00  0.00    +0.003 C 
ATOM     27  C   UNL     1      -0.554  -0.506   1.430  0.00  0.00    +0.035 C 
ATOM     28  N   UNL     1       1.431  -0.341  -0.013  0.00  0.00    -0.274 N 
ATOM     29  C   UNL     1       2.094   0.828  -0.107  0.00  0.00    +0.312 C 
ATOM     30  O   UNL     1       3.301   0.913  -0.219  0.00  0.00    -0.252 OA
ATOM     31  C   UNL     1       2.016  -1.685  -0.026  0.00  0.00    +0.134 C 
ENDBRANCH  18  19
ENDBRANCH   8  18
TORSDOF 3
