REMARK  Name = ZINC09639447
REMARK  10 active torsions:
REMARK  status: ('A' for Active; 'I' for Inactive)
REMARK    1  A    between atoms: C_1  and  O_2
REMARK    2  A    between atoms: O_2  and  C_3
REMARK    3  A    between atoms: C_6  and  C_9
REMARK    4  A    between atoms: C_12  and  S_17
REMARK    5  A    between atoms: N_13  and  C_14
REMARK    6  A    between atoms: C_14  and  C_15
REMARK    7  A    between atoms: S_17  and  C_18
REMARK    8  A    between atoms: C_18  and  C_19
REMARK    9  A    between atoms: N_21  and  C_22
REMARK   10  A    between atoms: C_23  and  C_31
REMARK                            x       y       z     vdW  Elec       q    Type
REMARK                         _______ _______ _______ _____ _____    ______ ____
ROOT
ATOM      1  C   UNL     1       0.351   5.319   2.612  0.00  0.00    +0.173 C 
ENDROOT
BRANCH   1   2
ATOM      2  C   UNL     1       1.294   6.482   2.443  0.00  0.00    +0.228 C 
ATOM      3  O   UNL     1       2.115   6.473   1.551  0.00  0.00    -0.275 OA
ATOM      4  N   UNL     1       1.224   7.534   3.283  0.00  0.00    -0.279 N 
ATOM      5  H   UNL     1       0.567   7.542   3.997  0.00  0.00    +0.155 HD
BRANCH   4   6
ATOM      6  C   UNL     1       2.091   8.604   3.128  0.00  0.00    +0.084 A 
ATOM      7  C   UNL     1       2.169   9.767   3.881  0.00  0.00    +0.068 A 
ATOM      8  C   UNL     1       3.180  10.742   3.508  0.00  0.00    -0.023 A 
ATOM      9  C   UNL     1       3.940  10.405   2.444  0.00  0.00    -0.004 A 
ATOM     10  S   UNL     1       3.336   8.818   1.942  0.00  0.00    -0.077 S 
ATOM     11  C   UNL     1       5.047  11.208   1.833  0.00  0.00    +0.043 C 
ATOM     12  C   UNL     1       4.950  12.646   2.362  0.00  0.00    +0.005 C 
ATOM     13  C   UNL     1       4.782  12.601   3.884  0.00  0.00    +0.005 C 
ATOM     14  C   UNL     1       3.395  12.062   4.238  0.00  0.00    +0.037 C 
BRANCH   7  15
ATOM     15  C   UNL     1       1.267  10.002   5.013  0.00  0.00    +0.244 C 
ATOM     16  O   UNL     1       1.584   9.635   6.129  0.00  0.00    -0.270 OA
ATOM     17  N   UNL     1       0.088  10.624   4.817  0.00  0.00    -0.325 N 
ATOM     18  H   UNL     1      -0.164  10.917   3.927  0.00  0.00    +0.145 HD
ATOM     19  H   UNL     1      -0.508  10.780   5.566  0.00  0.00    +0.145 HD
ENDBRANCH   7  15
ENDBRANCH   4   6
ENDBRANCH   1   2
BRANCH   1  20
ATOM     20  S   UNL     1       0.692   4.076   1.341  0.00  0.00    -0.077 S 
BRANCH  20  24
ATOM     21  C   UNL     1      -1.762   1.071   1.806  0.00  0.00    +0.165 A 
ATOM     22  N   UNL     1      -2.115   1.884   2.775  0.00  0.00    -0.128 NA
ATOM     23  N   UNL     1      -1.385   2.942   2.747  0.00  0.00    -0.122 NA
ATOM     24  C   UNL     1      -0.517   2.866   1.763  0.00  0.00    +0.193 A 
ATOM     25  N   UNL     1      -0.730   1.677   1.127  0.00  0.00    -0.298 N 
BRANCH  21  29
ATOM     26  C   UNL     1      -3.480  -2.717   0.938  0.00  0.00    +0.120 A 
ATOM     27  C   UNL     1      -3.652  -2.150   2.194  0.00  0.00    +0.046 A 
ATOM     28  C   UNL     1      -3.096  -0.921   2.480  0.00  0.00    +0.015 A 
ATOM     29  C   UNL     1      -2.360  -0.246   1.504  0.00  0.00    +0.020 A 
ATOM     30  C   UNL     1      -2.194  -0.817   0.241  0.00  0.00    +0.015 A 
ATOM     31  C   UNL     1      -2.748  -2.049  -0.035  0.00  0.00    +0.046 A 
BRANCH  26  33
ATOM     32  C   UNL     1      -3.813  -4.453  -0.651  0.00  0.00    +0.277 C 
ATOM     33  O   UNL     1      -4.029  -3.928   0.660  0.00  0.00    -0.495 OA
ENDBRANCH  26  33
ENDBRANCH  21  29
BRANCH  25  34
ATOM     34  C   UNL     1      -0.007   1.152  -0.034  0.00  0.00    +0.152 C 
BRANCH  34  35
ATOM     35  C   UNL     1      -0.609   1.712  -1.297  0.00  0.00    -0.013 C 
ATOM     36  C   UNL     1      -0.985   0.905  -2.258  0.00  0.00    +0.005 C 
ENDBRANCH  34  35
ENDBRANCH  25  34
ENDBRANCH  20  24
ENDBRANCH   1  20
TORSDOF 9
