REMARK  Name = ZINC57317029
REMARK  8 active torsions:
REMARK  status: ('A' for Active; 'I' for Inactive)
REMARK    1  A    between atoms: C_1  and  C_2
REMARK    2  A    between atoms: C_2  and  C_3
REMARK    3  A    between atoms: C_2  and  C_4
REMARK    4  A    between atoms: C_7  and  C_10
REMARK    5  A    between atoms: C_11  and  C_12
REMARK    6  A    between atoms: N_14  and  C_15
REMARK    7  A    between atoms: C_15  and  C_16
REMARK    8  A    between atoms: C_19  and  C_21
REMARK                            x       y       z     vdW  Elec       q    Type
REMARK                         _______ _______ _______ _____ _____    ______ ____
ROOT
ATOM      1  C   UNL     1      -7.203  -3.283  -0.954  0.00  0.00    +0.237 C 
ATOM      2  O   UNL     1      -7.949  -3.001  -0.035  0.00  0.00    -0.271 OA
ATOM      3  N   UNL     1      -7.641  -4.063  -1.962  0.00  0.00    -0.305 N 
ATOM      4  H   UNL     1      -7.047  -4.288  -2.695  0.00  0.00    +0.149 HD
ENDROOT
BRANCH   1   6
ATOM      5  C   UNL     1      -5.391  -1.995   0.044  0.00  0.00    +0.013 C 
ATOM      6  C   UNL     1      -5.829  -2.775  -0.965  0.00  0.00    +0.068 C 
BRANCH   5  10
ATOM      7  C   UNL     1      -1.412  -0.526   0.013  0.00  0.00    -0.045 A 
ATOM      8  C   UNL     1      -2.257  -0.202   1.060  0.00  0.00    +0.004 A 
ATOM      9  C   UNL     1      -3.552  -0.675   1.077  0.00  0.00    +0.008 A 
ATOM     10  C   UNL     1      -4.010  -1.485   0.033  0.00  0.00    -0.025 A 
ATOM     11  C   UNL     1      -3.150  -1.807  -1.022  0.00  0.00    +0.008 A 
ATOM     12  C   UNL     1      -1.860  -1.322  -1.027  0.00  0.00    +0.004 A 
BRANCH   7  14
ATOM     13  C   UNL     1      -0.019   1.526   0.010  0.00  0.00    +0.012 C 
ATOM     14  C   UNL     1       0.002  -0.004   0.002  0.00  0.00    +0.013 C 
ATOM     15  C   UNL     1       0.742  -0.511   1.242  0.00  0.00    +0.012 C 
ENDBRANCH   7  14
ENDBRANCH   5  10
ENDBRANCH   1   6
BRANCH   3  16
ATOM     16  C   UNL     1      -9.015  -4.571  -1.951  0.00  0.00    +0.179 C 
BRANCH  16  17
ATOM     17  C   UNL     1      -9.250  -5.410  -3.181  0.00  0.00    +0.123 A 
ATOM     18  C   UNL     1      -9.045  -6.738  -3.276  0.00  0.00    +0.047 A 
ATOM     19  C   UNL     1      -9.388  -7.115  -4.590  0.00  0.00    +0.050 A 
ATOM     20  C   UNL     1      -9.789  -5.984  -5.230  0.00  0.00    +0.135 A 
ATOM     21  O   UNL     1      -9.705  -4.959  -4.361  0.00  0.00    -0.458 OA
BRANCH  20  22
ATOM     22  C   UNL     1     -10.242  -5.897  -6.634  0.00  0.00    +0.017 A 
ATOM     23  C   UNL     1     -10.293  -7.044  -7.427  0.00  0.00    +0.012 A 
ATOM     24  C   UNL     1     -10.717  -6.956  -8.737  0.00  0.00    +0.016 A 
ATOM     25  C   UNL     1     -11.092  -5.733  -9.265  0.00  0.00    +0.018 A 
ATOM     26  C   UNL     1     -11.045  -4.591  -8.483  0.00  0.00    +0.016 A 
ATOM     27  C   UNL     1     -10.628  -4.667  -7.171  0.00  0.00    +0.012 A 
ATOM     28 BR   UNL     1     -11.672  -5.621 -11.061  0.00  0.00    -0.050 Br
ENDBRANCH  20  22
ENDBRANCH  16  17
ENDBRANCH   3  16
TORSDOF 6
