REMARK  Name = ZINC62222530
REMARK  8 active torsions:
REMARK  status: ('A' for Active; 'I' for Inactive)
REMARK    1  A    between atoms: C_1  and  C_2
REMARK    2  A    between atoms: C_2  and  C_3
REMARK    3  A    between atoms: C_2  and  C_4
REMARK    4  A    between atoms: C_11  and  C_16
REMARK    5  A    between atoms: C_16  and  C_17
REMARK    6  A    between atoms: C_17  and  N_18
REMARK    7  A    between atoms: C_19  and  C_21
REMARK    8  A    between atoms: C_24  and  C_26
REMARK                            x       y       z     vdW  Elec       q    Type
REMARK                         _______ _______ _______ _____ _____    ______ ____
ROOT
ATOM      1  C   UNL     1      -1.412  -0.526   0.013  0.00  0.00    -0.044 A 
ATOM      2  C   UNL     1      -2.258  -0.199   1.064  0.00  0.00    +0.006 A 
ATOM      3  C   UNL     1      -3.554  -0.665   1.094  0.00  0.00    +0.026 A 
ATOM      4  C   UNL     1      -4.022  -1.471   0.062  0.00  0.00    +0.049 A 
ATOM      5  C   UNL     1      -3.162  -1.799  -1.003  0.00  0.00    -0.001 A 
ATOM      6  C   UNL     1      -1.851  -1.311  -1.015  0.00  0.00    +0.013 A 
ATOM      7  C   UNL     1      -3.664  -2.648  -2.085  0.00  0.00    +0.019 A 
ATOM      8  C   UNL     1      -4.945  -3.088  -2.022  0.00  0.00    +0.019 A 
ATOM      9  C   UNL     1      -5.767  -2.729  -0.932  0.00  0.00    +0.252 A 
ATOM     10  O   UNL     1      -6.916  -3.135  -0.895  0.00  0.00    -0.268 OA
ATOM     11  N   UNL     1      -5.315  -1.950   0.066  0.00  0.00    -0.322 N 
ATOM     12  H   UNL     1      -5.907  -1.723   0.800  0.00  0.00    +0.169 HD
ENDROOT
BRANCH   1  14
ATOM     13  C   UNL     1      -0.019   1.526   0.010  0.00  0.00    +0.012 C 
ATOM     14  C   UNL     1       0.002  -0.004   0.002  0.00  0.00    +0.013 C 
ATOM     15  C   UNL     1       0.742  -0.511   1.242  0.00  0.00    +0.012 C 
ENDBRANCH   1  14
BRANCH   8  16
ATOM     16  C   UNL     1      -5.494  -3.963  -3.120  0.00  0.00    +0.059 C 
BRANCH  16  17
ATOM     17  C   UNL     1      -5.353  -5.433  -2.718  0.00  0.00    +0.109 C 
BRANCH  17  18
ATOM     18  N   UNL     1      -5.886  -6.283  -3.785  0.00  0.00    -0.315 N 
ATOM     19  C   UNL     1      -5.868  -7.624  -3.651  0.00  0.00    +0.217 C 
ATOM     20  O   UNL     1      -5.410  -8.127  -2.646  0.00  0.00    -0.275 OA
ATOM     21  H   UNL     1      -6.252  -5.881  -4.589  0.00  0.00    +0.149 HD
BRANCH  19  22
ATOM     22  C   UNL     1      -6.416  -8.499  -4.748  0.00  0.00    +0.083 C 
ATOM     23  C   UNL     1      -5.419  -9.348  -5.540  0.00  0.00    +0.022 C 
ATOM     24  C   UNL     1      -6.364 -10.014  -4.537  0.00  0.00    +0.032 C 
BRANCH  24  25
ATOM     25  C   UNL     1      -5.769 -10.516  -3.247  0.00  0.00    -0.044 A 
ATOM     26  C   UNL     1      -4.462 -10.208  -2.922  0.00  0.00    +0.004 A 
ATOM     27  C   UNL     1      -3.916 -10.669  -1.739  0.00  0.00    +0.000 A 
ATOM     28  C   UNL     1      -4.678 -11.437  -0.879  0.00  0.00    +0.000 A 
ATOM     29  C   UNL     1      -5.987 -11.745  -1.203  0.00  0.00    +0.000 A 
ATOM     30  C   UNL     1      -6.534 -11.280  -2.385  0.00  0.00    +0.004 A 
ENDBRANCH  24  25
ENDBRANCH  19  22
ENDBRANCH  17  18
ENDBRANCH  16  17
ENDBRANCH   8  16
TORSDOF 6
