REMARK  Name = ZINC02741810
REMARK  9 active torsions:
REMARK  status: ('A' for Active; 'I' for Inactive)
REMARK    1  A    between atoms: C_1  and  C_2
REMARK    2  A    between atoms: C_2  and  C_3
REMARK    3  A    between atoms: C_10  and  N_14
REMARK    4  A    between atoms: C_11  and  C_12
REMARK    5  A    between atoms: C_15  and  C_17
REMARK    6  A    between atoms: C_17  and  C_18
REMARK    7  A    between atoms: C_18  and  C_19
REMARK    8  A    between atoms: C_22  and  O_25
REMARK    9  A    between atoms: O_25  and  C_26
REMARK                            x       y       z     vdW  Elec       q    Type
REMARK                         _______ _______ _______ _____ _____    ______ ____
ROOT
ATOM      1  N   UNL     1      -0.288   1.272  -2.443  0.00  0.00    -0.279 N 
ATOM      2  C   UNL     1      -0.742   1.585  -1.213  0.00  0.00    +0.218 C 
ATOM      3  O   UNL     1      -1.736   2.268  -1.088  0.00  0.00    -0.275 OA
ATOM      4  H   UNL     1       0.507   0.726  -2.543  0.00  0.00    +0.155 HD
ENDROOT
BRANCH   1  11
ATOM      5  C   UNL     1      -3.136   3.683  -7.635  0.00  0.00    -0.006 C 
ATOM      6  C   UNL     1      -2.629   2.318  -8.111  0.00  0.00    +0.008 C 
ATOM      7  C   UNL     1      -1.319   1.973  -7.401  0.00  0.00    +0.037 C 
ATOM      8  C   UNL     1      -1.524   2.117  -5.898  0.00  0.00    -0.018 A 
ATOM      9  C   UNL     1      -2.559   2.829  -5.402  0.00  0.00    -0.004 A 
ATOM     10  S   UNL     1      -2.391   2.706  -3.644  0.00  0.00    -0.077 S 
ATOM     11  C   UNL     1      -0.960   1.732  -3.568  0.00  0.00    +0.090 A 
ATOM     12  C   UNL     1      -0.651   1.518  -4.903  0.00  0.00    +0.084 A 
ATOM     13  C   UNL     1      -3.613   3.553  -6.181  0.00  0.00    +0.046 C 
BRANCH   5  15
ATOM     14  C   UNL     1      -4.734   5.543  -8.110  0.00  0.00    +0.004 C 
ATOM     15  C   UNL     1      -4.300   4.134  -8.519  0.00  0.00    +0.000 C 
ENDBRANCH   5  15
BRANCH  12  16
ATOM     16  C   UNL     1       0.486   0.737  -5.286  0.00  0.00    +0.102 C 
ATOM     17  N   UNL     1       1.389   0.118  -5.590  0.00  0.00    -0.191 NA
ENDBRANCH  12  16
ENDBRANCH   1  11
BRANCH   2  18
ATOM     18  C   UNL     1      -0.013   1.086   0.008  0.00  0.00    +0.101 C 
BRANCH  18  19
ATOM     19  C   UNL     1      -0.729   1.579   1.267  0.00  0.00    +0.044 C 
BRANCH  19  20
ATOM     20  C   UNL     1       0.000   1.080   2.488  0.00  0.00    -0.047 A 
ATOM     21  C   UNL     1      -0.348  -0.134   3.051  0.00  0.00    +0.007 A 
ATOM     22  C   UNL     1       0.322  -0.596   4.167  0.00  0.00    +0.046 A 
ATOM     23  C   UNL     1       1.338   0.164   4.729  0.00  0.00    +0.120 A 
ATOM     24  C   UNL     1       1.682   1.383   4.165  0.00  0.00    +0.046 A 
ATOM     25  C   UNL     1       1.012   1.839   3.046  0.00  0.00    +0.007 A 
BRANCH  23  26
ATOM     26  O   UNL     1       1.996  -0.287   5.830  0.00  0.00    -0.495 OA
ATOM     27  C   UNL     1       1.588  -1.551   6.356  0.00  0.00    +0.277 C 
ENDBRANCH  23  26
ENDBRANCH  19  20
ENDBRANCH  18  19
ENDBRANCH   2  18
TORSDOF 7
