REMARK  Name = ZINC64410391
REMARK  3 active torsions:
REMARK  status: ('A' for Active; 'I' for Inactive)
REMARK    1  A    between atoms: C_4  and  C_7
REMARK    2  A    between atoms: C_13  and  C_15
REMARK    3  A    between atoms: N_18  and  C_21
REMARK                            x       y       z     vdW  Elec       q    Type
REMARK                         _______ _______ _______ _____ _____    ______ ____
ROOT
ATOM      1  C   UNL     1       6.979  -3.689   1.648  0.00  0.00    +0.078 C 
ATOM      2  C   UNL     1       8.180  -2.825   2.045  0.00  0.00    +0.028 C 
ATOM      3  C   UNL     1       8.672  -3.251   3.430  0.00  0.00    +0.087 C 
ATOM      4  N   UNL     1       9.054  -4.668   3.401  0.00  0.00    -0.275 NA
ATOM      5  C   UNL     1       7.906  -5.521   3.068  0.00  0.00    +0.087 C 
ATOM      6  C   UNL     1       7.391  -5.164   1.672  0.00  0.00    +0.028 C 
ENDROOT
BRANCH   4   7
ATOM      7  C   UNL     1       9.661  -5.076   4.675  0.00  0.00    +0.239 C 
ATOM      8  C   UNL     1      10.169  -6.490   4.512  0.00  0.00    +0.255 C 
ATOM      9  O   UNL     1      10.979  -6.757   3.646  0.00  0.00    -0.272 OA
ATOM     10  N   UNL     1       9.718  -7.441   5.332  0.00  0.00    -0.281 N 
ATOM     11  C   UNL     1       8.838  -7.177   6.282  0.00  0.00    +0.057 A 
ATOM     12  C   UNL     1       8.380  -8.208   7.134  0.00  0.00    +0.025 A 
ATOM     13  C   UNL     1       7.479  -7.943   8.108  0.00  0.00    +0.002 A 
ATOM     14  C   UNL     1       6.954  -6.659   8.329  0.00  0.00    +0.002 A 
ATOM     15  C   UNL     1       7.323  -5.602   7.573  0.00  0.00    +0.027 A 
ATOM     16  C   UNL     1       8.301  -5.809   6.492  0.00  0.00    +0.058 A 
ATOM     17  N   UNL     1       8.682  -4.816   5.742  0.00  0.00    -0.360 N 
ATOM     18  H   UNL     1       8.328  -3.924   5.884  0.00  0.00    +0.162 HD
ATOM     19  H   UNL     1      10.044  -8.349   5.228  0.00  0.00    +0.155 HD
ENDBRANCH   4   7
BRANCH   1  26
ATOM     20  C   UNL     1       3.994  -0.335  -0.069  0.00  0.00    -0.041 C 
ATOM     21  C   UNL     1       4.818  -0.245   0.947  0.00  0.00    -0.004 C 
ATOM     22  C   UNL     1       6.097  -1.028   1.048  0.00  0.00    +0.135 C 
ATOM     23  N   UNL     1       6.117  -2.058  -0.000  0.00  0.00    -0.297 N 
ATOM     24  C   UNL     1       5.669  -1.661  -1.347  0.00  0.00    +0.113 C 
ATOM     25  C   UNL     1       4.199  -1.241  -1.247  0.00  0.00    +0.054 C 
ATOM     26  C   UNL     1       6.527  -3.315   0.259  0.00  0.00    +0.219 C 
ATOM     27  O   UNL     1       6.533  -4.146  -0.624  0.00  0.00    -0.275 OA
BRANCH  20  31
ATOM     28  C   UNL     1       0.504   2.084  -0.013  0.00  0.00    +0.000 A 
ATOM     29  C   UNL     1       1.752   2.677  -0.089  0.00  0.00    +0.001 A 
ATOM     30  C   UNL     1       2.890   1.897  -0.108  0.00  0.00    +0.008 A 
ATOM     31  C   UNL     1       2.780   0.507  -0.049  0.00  0.00    -0.022 A 
ATOM     32  C   UNL     1       1.518  -0.085   0.028  0.00  0.00    +0.008 A 
ATOM     33  C   UNL     1       0.389   0.707   0.045  0.00  0.00    +0.001 A 
ENDBRANCH  20  31
ENDBRANCH   1  26
TORSDOF 3
