REMARK  Name = ZINC24886586
REMARK  11 active torsions:
REMARK  status: ('A' for Active; 'I' for Inactive)
REMARK    1  A    between atoms: C_1  and  C_2
REMARK    2  A    between atoms: N_7  and  C_9
REMARK    3  A    between atoms: C_9  and  C_10
REMARK    4  A    between atoms: C_16  and  C_18
REMARK    5  A    between atoms: C_18  and  C_20
REMARK    6  A    between atoms: C_18  and  N_23
REMARK    7  A    between atoms: C_20  and  C_21
REMARK    8  A    between atoms: C_20  and  C_22
REMARK    9  A    between atoms: N_23  and  S_24
REMARK   10  A    between atoms: S_24  and  C_27
REMARK   11  A    between atoms: C_28  and  C_29
REMARK                            x       y       z     vdW  Elec       q    Type
REMARK                         _______ _______ _______ _____ _____    ______ ____
ROOT
ATOM      1  C   UNL     1       1.183   5.360  -0.531  0.00  0.00    +0.034 A 
ATOM      2  C   UNL     1       0.727   5.754   0.683  0.00  0.00    +0.070 A 
ATOM      3  S   UNL     1       0.919   7.525   0.552  0.00  0.00    -0.060 S 
ATOM      4  C   UNL     1       1.568   7.564  -1.058  0.00  0.00    +0.165 A 
ATOM      5  N   UNL     1       1.601   6.284  -1.375  0.00  0.00    -0.231 NA
ATOM      6  N   UNL     1       1.959   8.661  -1.816  0.00  0.00    -0.263 N 
ATOM      7  C   UNL     1       1.851   9.904  -1.308  0.00  0.00    +0.238 C 
ATOM      8  O   UNL     1       1.414  10.066  -0.188  0.00  0.00    -0.274 OA
ATOM      9  H   UNL     1       2.356   8.514  -2.832  0.00  0.00    +0.157 HD
ENDROOT
BRANCH   1  10
ATOM     10  C   UNL     1       1.219   3.901  -0.905  0.00  0.00    -0.022 C 
BRANCH  10  16
ATOM     11  C   UNL     1      -1.574   0.259  -2.672  0.00  0.00    +0.005 C 
ATOM     12  C   UNL     1      -1.463   1.771  -2.469  0.00  0.00    -0.031 C 
ATOM     13  C   UNL     1      -1.562   2.478  -3.824  0.00  0.00    -0.001 C 
ATOM     14  C   UNL     1      -1.390   3.985  -3.618  0.00  0.00    -0.018 C 
ATOM     15  C   UNL     1      -0.045   4.253  -2.939  0.00  0.00    -0.078 C 
ATOM     16  N   UNL     1      -0.001   3.556  -1.647  0.00  0.00    +0.384 N 
ATOM     17  C   UNL     1      -0.116   2.103  -1.823  0.00  0.00    -0.075 C 
ATOM     18  H   UNL     1      -0.865   3.892  -1.056  0.00  0.00    -0.081 HD
ENDBRANCH  10  16
ENDBRANCH   1  10
BRANCH   7  19
ATOM     19  C   UNL     1       2.275  11.094  -2.130  0.00  0.00    +0.165 C 
BRANCH  19  20
ATOM     20  C   UNL     1       3.758  10.967  -2.485  0.00  0.00    +0.010 C 
ATOM     21  C   UNL     1       4.160  12.114  -3.414  0.00  0.00    +0.009 C 
ATOM     22  C   UNL     1       4.596  11.029  -1.206  0.00  0.00    +0.009 C 
ENDBRANCH  19  20
BRANCH  19  23
ATOM     23  N   UNL     1       2.061  12.322  -1.359  0.00  0.00    -0.178 NA
ATOM     24  H   UNL     1       2.504  12.426  -0.357  0.00  0.00    +0.149 HD
BRANCH  23  25
ATOM     25  S   UNL     1       0.961  13.444  -1.879  0.00  0.00    +0.052 S 
ATOM     26  O   UNL     1       0.940  14.476  -0.901  0.00  0.00    -0.154 OA
ATOM     27  O   UNL     1       1.253  13.697  -3.246  0.00  0.00    -0.154 OA
BRANCH  25  28
ATOM     28  C   UNL     1      -0.625  12.678  -1.836  0.00  0.00    +0.153 C 
ATOM     29  C   UNL     1      -1.555  13.125  -1.003  0.00  0.00    +0.028 C 
BRANCH  29  30
ATOM     30  C   UNL     1      -2.886  12.482  -0.967  0.00  0.00    -0.024 A 
ATOM     31  C   UNL     1      -3.168  11.408  -1.812  0.00  0.00    +0.008 A 
ATOM     32  C   UNL     1      -4.410  10.809  -1.770  0.00  0.00    +0.001 A 
ATOM     33  C   UNL     1      -5.378  11.278  -0.900  0.00  0.00    +0.000 A 
ATOM     34  C   UNL     1      -5.106  12.345  -0.063  0.00  0.00    +0.001 A 
ATOM     35  C   UNL     1      -3.866  12.950  -0.092  0.00  0.00    +0.008 A 
ENDBRANCH  29  30
ENDBRANCH  25  28
ENDBRANCH  23  25
ENDBRANCH  19  23
ENDBRANCH   7  19
TORSDOF 8
