REMARK  Name = ZINC64343938
REMARK  8 active torsions:
REMARK  status: ('A' for Active; 'I' for Inactive)
REMARK    1  A    between atoms: C_1  and  C_2
REMARK    2  A    between atoms: C_5  and  C_7
REMARK    3  A    between atoms: C_9  and  C_12
REMARK    4  A    between atoms: C_12  and  N_13
REMARK    5  A    between atoms: N_13  and  C_14
REMARK    6  A    between atoms: C_14  and  C_15
REMARK    7  A    between atoms: C_14  and  C_16
REMARK    8  A    between atoms: C_14  and  C_17
REMARK                            x       y       z     vdW  Elec       q    Type
REMARK                         _______ _______ _______ _____ _____    ______ ____
ROOT
ATOM      1  N   UNL     1       5.648  -4.227  -1.418  0.00  0.00    +0.389 N 
ATOM      2  H   UNL     1       5.316  -5.003  -1.970  0.00  0.00    -0.084 HD
ATOM      3  H   UNL     1       5.306  -3.363  -1.812  0.00  0.00    -0.084 HD
ENDROOT
BRANCH   1   4
ATOM      4  C   UNL     1       7.117  -4.218  -1.420  0.00  0.00    -0.047 C 
ATOM      5  C   UNL     1       7.621  -3.041  -0.582  0.00  0.00    -0.006 C 
ATOM      6  C   UNL     1       7.635  -5.528  -0.823  0.00  0.00    -0.006 C 
BRANCH   4   7
ATOM      7  C   UNL     1       7.617  -4.078  -2.834  0.00  0.00    -0.055 A 
ATOM      8  C   UNL     1       6.715  -3.977  -3.878  0.00  0.00    +0.006 A 
ATOM      9  C   UNL     1       7.169  -3.848  -5.177  0.00  0.00    +0.050 A 
ATOM     10  C   UNL     1       8.530  -3.821  -5.437  0.00  0.00    +0.166 A 
ATOM     11  C   UNL     1       9.438  -3.923  -4.386  0.00  0.00    +0.166 A 
ATOM     12  C   UNL     1       8.976  -4.046  -3.086  0.00  0.00    +0.051 A 
ATOM     13  O   UNL     1      10.703  -3.872  -4.896  0.00  0.00    -0.453 OA
ATOM     14  C   UNL     1      10.562  -4.147  -6.302  0.00  0.00    +0.466 C 
ATOM     15  O   UNL     1       9.226  -3.705  -6.605  0.00  0.00    -0.453 OA
ENDBRANCH   4   7
ENDBRANCH   1   4
BRANCH   1  16
ATOM     16  C   UNL     1       5.160  -4.363  -0.039  0.00  0.00    -0.024 C 
BRANCH  16  19
ATOM     17  C   UNL     1       1.662  -3.220  -0.025  0.00  0.00    +0.143 A 
ATOM     18  N   UNL     1       2.990  -3.240  -0.027  0.00  0.00    -0.243 NA
ATOM     19  C   UNL     1       3.654  -4.372  -0.037  0.00  0.00    +0.032 A 
ATOM     20  C   UNL     1       2.980  -5.552  -0.047  0.00  0.00    +0.068 A 
ATOM     21  S   UNL     1       1.289  -4.969  -0.033  0.00  0.00    -0.072 S 
BRANCH  17  26
ATOM     22  C   UNL     1      -0.018   1.503   0.010  0.00  0.00    +0.086 C 
ATOM     23  C   UNL     1       0.002  -0.004   0.002  0.00  0.00    +0.103 A 
ATOM     24  C   UNL     1      -1.083  -0.804   0.003  0.00  0.00    +0.045 A 
ATOM     25  C   UNL     1      -0.617  -2.133  -0.008  0.00  0.00    +0.052 A 
ATOM     26  C   UNL     1       0.745  -2.071  -0.014  0.00  0.00    +0.160 A 
ATOM     27  O   UNL     1       1.104  -0.771  -0.013  0.00  0.00    -0.458 OA
ENDBRANCH  17  26
ENDBRANCH  16  19
ENDBRANCH   1  16
TORSDOF 5
