REMARK  Name = ZINC12003836
REMARK  10 active torsions:
REMARK  status: ('A' for Active; 'I' for Inactive)
REMARK    1  A    between atoms: C_1  and  C_2
REMARK    2  A    between atoms: C_5  and  C_7
REMARK    3  A    between atoms: C_7  and  C_9
REMARK    4  A    between atoms: C_7  and  C_10
REMARK    5  A    between atoms: C_10  and  C_11
REMARK    6  A    between atoms: C_11  and  N_64
REMARK    7  A    between atoms: C_14  and  C_17
REMARK    8  A    between atoms: C_17  and  C_24
REMARK    9  A    between atoms: C_24  and  C_25
REMARK   10  A    between atoms: C_25  and  C_26
REMARK                            x       y       z     vdW  Elec       q    Type
REMARK                         _______ _______ _______ _____ _____    ______ ____
ROOT
ATOM      1  C   UNL     1      -5.442   4.206   4.329  0.00  0.00    -0.078 C 
ATOM      2  C   UNL     1      -4.930   4.055   2.895  0.00  0.00    -0.013 C 
ATOM      3  C   UNL     1      -3.593   3.310   2.911  0.00  0.00    +0.018 C 
ATOM      4  C   UNL     1      -3.783   1.950   3.589  0.00  0.00    -0.013 C 
ATOM      5  C   UNL     1      -4.330   2.162   5.003  0.00  0.00    -0.078 C 
ATOM      6  N   UNL     1      -5.629   2.862   4.916  0.00  0.00    +0.380 N 
ATOM      7  H   UNL     1      -6.260   2.321   4.314  0.00  0.00    -0.082 HD
ENDROOT
BRANCH   3   8
ATOM      8  C   UNL     1      -3.105   3.102   1.476  0.00  0.00    +0.115 C 
ATOM      9  C   UNL     1      -2.979   4.431   0.758  0.00  0.00    +0.244 C 
ATOM     10  O   UNL     1      -2.257   5.358   1.057  0.00  0.00    -0.273 OA
ATOM     11  N   UNL     1      -3.834   4.367  -0.281  0.00  0.00    -0.238 N 
ATOM     12  C   UNL     1      -4.477   3.194  -0.319  0.00  0.00    +0.307 C 
ATOM     13  O   UNL     1      -5.299   2.902  -1.165  0.00  0.00    -0.252 OA
ATOM     14  N   UNL     1      -4.112   2.375   0.684  0.00  0.00    -0.285 N 
ATOM     15  H   UNL     1      -3.967   5.082  -0.922  0.00  0.00    +0.159 HD
ATOM     16  H   UNL     1      -4.446   1.480   0.852  0.00  0.00    +0.151 HD
BRANCH   8  17
ATOM     17  C   UNL     1      -1.770   2.355   1.466  0.00  0.00    +0.040 C 
BRANCH  17  18
ATOM     18  C   UNL     1      -1.332   2.114   0.020  0.00  0.00    +0.038 C 
BRANCH  18  19
ATOM     19  C   UNL     1      -0.017   1.378   0.010  0.00  0.00    -0.047 A 
ATOM     20  C   UNL     1       1.171   2.086   0.002  0.00  0.00    +0.003 A 
ATOM     21  C   UNL     1       2.377   1.411  -0.014  0.00  0.00    +0.000 A 
ATOM     22  C   UNL     1       2.396   0.029  -0.022  0.00  0.00    +0.000 A 
ATOM     23  C   UNL     1       1.208  -0.679  -0.014  0.00  0.00    +0.000 A 
ATOM     24  C   UNL     1       0.002  -0.004   0.002  0.00  0.00    +0.003 A 
ENDBRANCH  18  19
ENDBRANCH  17  18
ENDBRANCH   8  17
ENDBRANCH   3   8
BRANCH   6  25
ATOM     25  C   UNL     1      -6.231   2.978   6.260  0.00  0.00    -0.078 C 
BRANCH  25  26
ATOM     26  C   UNL     1      -6.616   1.580   6.750  0.00  0.00    -0.008 C 
BRANCH  26  27
ATOM     27  C   UNL     1      -7.262   1.684   8.132  0.00  0.00    +0.050 C 
ATOM     28  C   UNL     1      -6.231   2.196   9.140  0.00  0.00    +0.015 C 
BRANCH  27  33
ATOM     29  C   UNL     1      -7.285  -3.200   9.393  0.00  0.00    +0.086 C 
ATOM     30  C   UNL     1      -7.762  -1.798   9.110  0.00  0.00    +0.102 A 
ATOM     31  C   UNL     1      -9.032  -1.366   9.203  0.00  0.00    +0.044 A 
ATOM     32  C   UNL     1      -9.026   0.003   8.849  0.00  0.00    +0.045 A 
ATOM     33  C   UNL     1      -7.752   0.325   8.561  0.00  0.00    +0.108 A 
ATOM     34  O   UNL     1      -6.992  -0.771   8.715  0.00  0.00    -0.465 OA
ENDBRANCH  27  33
ENDBRANCH  26  27
ENDBRANCH  25  26
ENDBRANCH   6  25
TORSDOF 8
