REMARK  Name = ZINC46729371
REMARK  13 active torsions:
REMARK  status: ('A' for Active; 'I' for Inactive)
REMARK    1  A    between atoms: C_1  and  C_2
REMARK    2  A    between atoms: C_2  and  C_3
REMARK    3  A    between atoms: C_3  and  C_4
REMARK    4  A    between atoms: C_4  and  C_6
REMARK    5  A    between atoms: C_4  and  N_20
REMARK    6  A    between atoms: N_8  and  C_9
REMARK    7  A    between atoms: C_9  and  C_10
REMARK    8  A    between atoms: C_10  and  C_12
REMARK    9  A    between atoms: C_10  and  N_17
REMARK   10  A    between atoms: N_17  and  C_18
REMARK   11  A    between atoms: N_17  and  C_19
REMARK   12  A    between atoms: N_23  and  C_24
REMARK   13  A    between atoms: C_24  and  C_25
REMARK                            x       y       z     vdW  Elec       q    Type
REMARK                         _______ _______ _______ _____ _____    ______ ____
ROOT
ATOM      1  C   UNL     1      -1.316  -1.944   0.208  0.00  0.00    +0.160 C 
ENDROOT
BRANCH   1   2
ATOM      2  N   UNL     1      -0.629  -2.486  -0.967  0.00  0.00    -0.288 N 
ATOM      3  C   UNL     1       0.717  -2.472  -1.026  0.00  0.00    +0.300 C 
ATOM      4  O   UNL     1       1.361  -2.008  -0.105  0.00  0.00    -0.253 OA
ATOM      5  N   UNL     1       1.349  -2.970  -2.107  0.00  0.00    -0.295 N 
ATOM      6  H   UNL     1      -1.144  -2.856  -1.701  0.00  0.00    +0.151 HD
ATOM      7  H   UNL     1       0.835  -3.340  -2.842  0.00  0.00    +0.151 HD
BRANCH   5   8
ATOM      8  C   UNL     1       2.812  -2.954  -2.172  0.00  0.00    +0.141 C 
BRANCH   8   9
ATOM      9  C   UNL     1       3.264  -3.565  -3.474  0.00  0.00    -0.030 A 
ATOM     10  C   UNL     1       3.500  -4.925  -3.554  0.00  0.00    +0.008 A 
ATOM     11  C   UNL     1       3.914  -5.486  -4.747  0.00  0.00    +0.038 A 
ATOM     12  C   UNL     1       4.092  -4.686  -5.863  0.00  0.00    +0.123 A 
ATOM     13  C   UNL     1       3.855  -3.325  -5.782  0.00  0.00    +0.038 A 
ATOM     14  C   UNL     1       3.436  -2.766  -4.589  0.00  0.00    +0.008 A 
ATOM     15  F   UNL     1       4.497  -5.234  -7.030  0.00  0.00    -0.205 F 
ENDBRANCH   8   9
ENDBRANCH   5   8
ENDBRANCH   1   2
BRANCH   1  16
ATOM     16  C   UNL     1      -2.671  -2.591   0.341  0.00  0.00    +0.233 C 
ATOM     17  O   UNL     1      -3.028  -3.422  -0.466  0.00  0.00    -0.274 OA
ATOM     18  N   UNL     1      -3.486  -2.244   1.357  0.00  0.00    -0.315 N 
ATOM     19  H   UNL     1      -3.201  -1.579   2.003  0.00  0.00    +0.149 HD
BRANCH  18  20
ATOM     20  C   UNL     1      -4.803  -2.873   1.486  0.00  0.00    +0.093 C 
BRANCH  20  21
ATOM     21  C   UNL     1      -5.475  -2.390   2.773  0.00  0.00    -0.020 C 
BRANCH  21  22
ATOM     22  C   UNL     1      -5.732  -0.908   2.681  0.00  0.00    -0.052 A 
ATOM     23  C   UNL     1      -4.879  -0.009   3.292  0.00  0.00    +0.009 A 
ATOM     24  C   UNL     1      -5.139   1.317   3.190  0.00  0.00    +0.045 A 
ATOM     25  S   UNL     1      -6.628   1.327   2.205  0.00  0.00    -0.105 S 
ATOM     26  C   UNL     1      -6.800  -0.438   1.992  0.00  0.00    +0.047 A 
ENDBRANCH  21  22
BRANCH  21  27
ATOM     27  N   UNL     1      -6.749  -3.098   2.956  0.00  0.00    +0.382 N 
ATOM     28  C   UNL     1      -6.499  -4.544   3.035  0.00  0.00    -0.096 C 
ATOM     29  C   UNL     1      -7.388  -2.643   4.198  0.00  0.00    -0.096 C 
ATOM     30  H   UNL     1      -7.357  -2.904   2.174  0.00  0.00    -0.082 HD
ENDBRANCH  21  27
ENDBRANCH  20  21
ENDBRANCH  18  20
ENDBRANCH   1  16
BRANCH   1  31
ATOM     31  C   UNL     1      -1.486  -0.432   0.047  0.00  0.00    +0.031 C 
BRANCH  31  33
ATOM     32  C   UNL     1      -0.281   1.750  -0.124  0.00  0.00    +0.004 C 
ATOM     33  C   UNL     1      -0.111   0.238   0.037  0.00  0.00    -0.001 C 
ENDBRANCH  31  33
ENDBRANCH   1  31
TORSDOF 10
