REMARK  Name = ZINC05724438
REMARK  8 active torsions:
REMARK  status: ('A' for Active; 'I' for Inactive)
REMARK    1  A    between atoms: C_1  and  C_2
REMARK    2  A    between atoms: C_3  and  C_12
REMARK    3  A    between atoms: N_13  and  N_14
REMARK    4  A    between atoms: C_15  and  C_17
REMARK    5  A    between atoms: C_17  and  C_19
REMARK    6  A    between atoms: C_17  and  C_20
REMARK    7  A    between atoms: C_25  and  O_30
REMARK    8  A    between atoms: O_30  and  C_31
REMARK                            x       y       z     vdW  Elec       q    Type
REMARK                         _______ _______ _______ _____ _____    ______ ____
ROOT
ATOM      1  N   UNL     1      -0.679  -6.132   1.416  0.00  0.00    -0.206 N 
ATOM      2  C   UNL     1      -0.578  -4.804   1.210  0.00  0.00    +0.239 C 
ATOM      3  O   UNL     1      -1.044  -4.027   2.018  0.00  0.00    -0.273 OA
ATOM      4  H   UNL     1      -0.307  -6.753   0.770  0.00  0.00    +0.177 HD
ENDROOT
BRANCH   1   6
ATOM      5  C   UNL     1      -1.419  -7.896   2.762  0.00  0.00    +0.140 C 
ATOM      6  N   UNL     1      -1.322  -6.616   2.563  0.00  0.00    -0.188 NA
BRANCH   5   9
ATOM      7  C   UNL     1      -2.689  -6.156   5.003  0.00  0.00    +0.064 C 
ATOM      8  C   UNL     1      -2.656  -7.662   4.959  0.00  0.00    +0.023 A 
ATOM      9  C   UNL     1      -2.094  -8.404   3.967  0.00  0.00    +0.023 A 
ATOM     10  C   UNL     1      -2.287  -9.817   4.339  0.00  0.00    +0.009 A 
ATOM     11  C   UNL     1      -1.938 -11.029   3.746  0.00  0.00    +0.010 A 
ATOM     12  C   UNL     1      -2.275 -12.213   4.365  0.00  0.00    +0.001 A 
ATOM     13  C   UNL     1      -2.957 -12.202   5.574  0.00  0.00    +0.002 A 
ATOM     14  C   UNL     1      -3.308 -11.011   6.172  0.00  0.00    +0.026 A 
ATOM     15  C   UNL     1      -2.977  -9.805   5.562  0.00  0.00    +0.047 A 
ATOM     16  N   UNL     1      -3.187  -8.486   5.906  0.00  0.00    -0.358 N 
ATOM     17  H   UNL     1      -3.643  -8.188   6.708  0.00  0.00    +0.166 HD
ENDBRANCH   5   9
ENDBRANCH   1   6
BRANCH   2  18
ATOM     18  C   UNL     1       0.113  -4.284  -0.024  0.00  0.00    +0.103 C 
ATOM     19  C   UNL     1      -0.613  -4.797  -1.270  0.00  0.00    +0.022 C 
BRANCH  18  20
ATOM     20  C   UNL     1       0.089  -2.777  -0.015  0.00  0.00    -0.035 A 
ATOM     21  C   UNL     1      -1.134  -2.109   0.001  0.00  0.00    +0.005 A 
ATOM     22  C   UNL     1      -1.190  -0.749   0.009  0.00  0.00    +0.009 A 
ATOM     23  C   UNL     1       0.002  -0.004   0.002  0.00  0.00    -0.014 A 
ATOM     24  C   UNL     1      -0.017   1.400   0.010  0.00  0.00    +0.054 A 
ATOM     25  C   UNL     1       1.161   2.091   0.002  0.00  0.00    +0.121 A 
ATOM     26  C   UNL     1       2.387   1.419  -0.013  0.00  0.00    +0.046 A 
ATOM     27  C   UNL     1       2.439   0.060  -0.021  0.00  0.00    +0.012 A 
ATOM     28  C   UNL     1       1.246  -0.683  -0.013  0.00  0.00    -0.017 A 
ATOM     29  C   UNL     1       1.264  -2.088  -0.021  0.00  0.00    +0.013 A 
BRANCH  25  30
ATOM     30  O   UNL     1       1.141   3.450   0.009  0.00  0.00    -0.495 OA
ATOM     31  C   UNL     1       2.405   4.117   0.001  0.00  0.00    +0.277 C 
ENDBRANCH  25  30
ENDBRANCH  18  20
ENDBRANCH   2  18
TORSDOF 5
