REMARK  Name = ZINC39990850
REMARK  7 active torsions:
REMARK  status: ('A' for Active; 'I' for Inactive)
REMARK    1  A    between atoms: C_1  and  C_2
REMARK    2  A    between atoms: C_2  and  C_4
REMARK    3  A    between atoms: C_2  and  N_15
REMARK    4  A    between atoms: N_15  and  C_16
REMARK    5  A    between atoms: C_16  and  C_17
REMARK    6  A    between atoms: C_17  and  C_19
REMARK    7  A    between atoms: C_17  and  C_25
REMARK                            x       y       z     vdW  Elec       q    Type
REMARK                         _______ _______ _______ _____ _____    ______ ____
ROOT
ATOM      1  C   UNL     1       2.063   0.057   0.654  0.00  0.00    -0.072 C 
ENDROOT
BRANCH   1   2
ATOM      2  N   UNL     1       0.658  -0.372   0.685  0.00  0.00    +0.387 N 
ATOM      3  H   UNL     1       0.330  -0.380   1.639  0.00  0.00    -0.085 HD
ATOM      4  H   UNL     1       0.581  -1.299   0.294  0.00  0.00    -0.085 HD
BRANCH   2   6
ATOM      5  C   UNL     1      -0.139   1.940   0.558  0.00  0.00    -0.004 C 
ATOM      6  C   UNL     1      -0.156   0.561  -0.105  0.00  0.00    +0.013 C 
BRANCH   6   7
ATOM      7  C   UNL     1      -1.574   0.055  -0.175  0.00  0.00    +0.206 C 
ATOM      8  O   UNL     1      -2.001  -0.674   0.695  0.00  0.00    -0.277 OA
ATOM      9  N   UNL     1      -2.367   0.414  -1.204  0.00  0.00    -0.272 N 
ATOM     10  C   UNL     1      -1.934   1.194  -2.366  0.00  0.00    +0.118 C 
ATOM     11  C   UNL     1      -3.188   1.338  -3.245  0.00  0.00    +0.056 C 
ATOM     12  C   UNL     1      -4.270   0.603  -2.487  0.00  0.00    -0.024 A 
ATOM     13  C   UNL     1      -3.723   0.090  -1.322  0.00  0.00    +0.039 A 
ATOM     14  C   UNL     1      -4.537  -0.639  -0.454  0.00  0.00    +0.024 A 
ATOM     15  C   UNL     1      -5.866  -0.848  -0.758  0.00  0.00    +0.002 A 
ATOM     16  C   UNL     1      -6.401  -0.336  -1.925  0.00  0.00    +0.000 A 
ATOM     17  C   UNL     1      -5.603   0.395  -2.786  0.00  0.00    +0.005 A 
ENDBRANCH   6   7
ENDBRANCH   2   6
ENDBRANCH   1   2
BRANCH   1  18
ATOM     18  C   UNL     1       2.929  -0.984   1.366  0.00  0.00    +0.018 C 
BRANCH  18  19
ATOM     19  C   UNL     1       2.871  -2.287   0.612  0.00  0.00    -0.020 A 
ATOM     20  C   UNL     1       2.395  -3.573   1.130  0.00  0.00    +0.003 A 
ATOM     21  C   UNL     1       1.887  -3.995   2.360  0.00  0.00    +0.010 A 
ATOM     22  C   UNL     1       1.522  -5.301   2.530  0.00  0.00    +0.001 A 
ATOM     23  C   UNL     1       1.652  -6.211   1.490  0.00  0.00    +0.002 A 
ATOM     24  C   UNL     1       2.151  -5.815   0.268  0.00  0.00    +0.026 A 
ATOM     25  C   UNL     1       2.529  -4.491   0.072  0.00  0.00    +0.047 A 
ATOM     26  N   UNL     1       3.047  -3.802  -1.001  0.00  0.00    -0.360 N 
ATOM     27  C   UNL     1       3.239  -2.490  -0.663  0.00  0.00    +0.087 A 
ATOM     28  H   UNL     1       3.244  -4.188  -1.869  0.00  0.00    +0.165 HD
ENDBRANCH  18  19
BRANCH  18  29
ATOM     29  C   UNL     1       4.377  -0.491   1.421  0.00  0.00    +0.060 C 
ATOM     30  C   UNL     1       5.272  -1.444   2.256  0.00  0.00    +0.042 C 
ATOM     31  C   UNL     1       6.255  -0.668   3.072  0.00  0.00    -0.019 C 
ATOM     32  C   UNL     1       6.053   0.615   3.298  0.00  0.00    +0.036 C 
ATOM     33  S   UNL     1       4.535   1.027   2.453  0.00  0.00    -0.129 S 
ENDBRANCH  18  29
ENDBRANCH   1  18
TORSDOF 6
