REMARK  Name = ZINC06341525
REMARK  10 active torsions:
REMARK  status: ('A' for Active; 'I' for Inactive)
REMARK    1  A    between atoms: C_4  and  C_7
REMARK    2  A    between atoms: C_10  and  S_13
REMARK    3  A    between atoms: N_11  and  N_12
REMARK    4  A    between atoms: S_13  and  C_14
REMARK    5  A    between atoms: C_14  and  C_15
REMARK    6  A    between atoms: C_15  and  C_16
REMARK    7  A    between atoms: C_16  and  C_17
REMARK    8  A    between atoms: N_19  and  N_20
REMARK    9  A    between atoms: C_21  and  C_22
REMARK   10  A    between atoms: C_27  and  O_28
REMARK                            x       y       z     vdW  Elec       q    Type
REMARK                         _______ _______ _______ _____ _____    ______ ____
ROOT
ATOM      1  C   UNL     1       7.820  -3.347  -0.008  0.00  0.00    +0.078 C 
ENDROOT
BRANCH   1   2
ATOM      2  S   UNL     1       6.083  -3.756   0.322  0.00  0.00    -0.084 S 
BRANCH   2   6
ATOM      3  C   UNL     1       3.695  -0.685  -0.038  0.00  0.00    +0.182 A 
ATOM      4  N   UNL     1       4.871  -0.170  -0.315  0.00  0.00    -0.127 NA
ATOM      5  N   UNL     1       5.777  -1.077  -0.236  0.00  0.00    -0.121 NA
ATOM      6  C   UNL     1       5.235  -2.228   0.097  0.00  0.00    +0.209 A 
ATOM      7  N   UNL     1       3.894  -2.018   0.239  0.00  0.00    -0.224 N 
BRANCH   3  11
ATOM      8  C   UNL     1      -0.017   1.379   0.010  0.00  0.00    +0.000 A 
ATOM      9  C   UNL     1       1.168   2.094   0.002  0.00  0.00    +0.001 A 
ATOM     10  C   UNL     1       2.377   1.429  -0.013  0.00  0.00    +0.011 A 
ATOM     11  C   UNL     1       2.403   0.034  -0.021  0.00  0.00    +0.021 A 
ATOM     12  C   UNL     1       1.204  -0.681  -0.013  0.00  0.00    +0.011 A 
ATOM     13  C   UNL     1       0.002  -0.004   0.002  0.00  0.00    +0.001 A 
ENDBRANCH   3  11
BRANCH   7  14
ATOM     14  N   UNL     1       2.946  -2.939   0.583  0.00  0.00    -0.295 N 
ATOM     15  H   UNL     1       2.567  -3.391  -0.236  0.00  0.00    +0.163 HD
ATOM     16  H   UNL     1       3.318  -3.617   1.230  0.00  0.00    +0.163 HD
ENDBRANCH   7  14
ENDBRANCH   2   6
ENDBRANCH   1   2
BRANCH   1  17
ATOM     17  C   UNL     1       8.679  -4.603   0.155  0.00  0.00    +0.020 C 
BRANCH  17  18
ATOM     18  C   UNL     1      10.143  -4.258  -0.123  0.00  0.00    +0.098 C 
BRANCH  18  19
ATOM     19  C   UNL     1      10.990  -5.494   0.038  0.00  0.00    +0.232 C 
ATOM     20  O   UNL     1      10.473  -6.548   0.345  0.00  0.00    -0.274 OA
ATOM     21  N   UNL     1      12.322  -5.429  -0.160  0.00  0.00    -0.207 N 
ATOM     22  H   UNL     1      12.735  -4.587  -0.405  0.00  0.00    +0.177 HD
BRANCH  21  23
ATOM     23  N   UNL     1      13.109  -6.579  -0.010  0.00  0.00    -0.188 NA
ATOM     24  C   UNL     1      14.391  -6.516  -0.201  0.00  0.00    +0.142 C 
BRANCH  24  25
ATOM     25  C   UNL     1      15.219  -7.726  -0.043  0.00  0.00    +0.036 A 
ATOM     26  C   UNL     1      16.600  -7.662  -0.241  0.00  0.00    +0.013 A 
ATOM     27  C   UNL     1      17.369  -8.797  -0.092  0.00  0.00    +0.001 A 
ATOM     28  C   UNL     1      16.778 -10.000   0.253  0.00  0.00    +0.004 A 
ATOM     29  C   UNL     1      15.412 -10.076   0.451  0.00  0.00    +0.046 A 
ATOM     30  C   UNL     1      14.625  -8.945   0.311  0.00  0.00    +0.125 A 
BRANCH  30  31
ATOM     31  O   UNL     1      13.284  -9.018   0.511  0.00  0.00    -0.506 OA
ATOM     32  H   UNL     1      12.779  -9.230  -0.285  0.00  0.00    +0.292 HD
ENDBRANCH  30  31
ENDBRANCH  24  25
ENDBRANCH  21  23
ENDBRANCH  18  19
ENDBRANCH  17  18
ENDBRANCH   1  17
TORSDOF 10
