REMARK  Name = ZINC43489832
REMARK  4 active torsions:
REMARK  status: ('A' for Active; 'I' for Inactive)
REMARK    1  A    between atoms: C_3  and  O_20
REMARK    2  A    between atoms: C_6  and  C_7
REMARK    3  A    between atoms: C_7  and  C_9
REMARK    4  A    between atoms: C_7  and  N_12
REMARK                            x       y       z     vdW  Elec       q    Type
REMARK                         _______ _______ _______ _____ _____    ______ ____
ROOT
ATOM      1  C   UNL     1      -1.293  -0.774   0.011  0.00  0.00    +0.078 C 
ENDROOT
BRANCH   1   2
ATOM      2  N   UNL     1      -1.164  -1.941   0.893  0.00  0.00    +0.391 N 
ATOM      3  C   UNL     1      -2.407  -2.732   0.818  0.00  0.00    -0.077 C 
ATOM      4  C   UNL     1      -2.086  -4.157   1.194  0.00  0.00    -0.019 C 
ATOM      5  C   UNL     1      -2.381  -4.428   2.681  0.00  0.00    -0.002 C 
ATOM      6  C   UNL     1      -1.948  -3.248   3.574  0.00  0.00    -0.002 C 
ATOM      7  C   UNL     1      -0.621  -2.667   3.157  0.00  0.00    -0.019 C 
ATOM      8  C   UNL     1      -0.868  -1.496   2.183  0.00  0.00    -0.077 C 
ATOM      9  H   UNL     1      -0.399  -2.511   0.565  0.00  0.00    -0.080 HD
ENDBRANCH   1   2
BRANCH   1  15
ATOM     10  C   UNL     1      -0.017   1.378   0.010  0.00  0.00    +0.006 A 
ATOM     11  C   UNL     1       1.170   2.087   0.002  0.00  0.00    +0.047 A 
ATOM     12  C   UNL     1       2.380   1.411  -0.013  0.00  0.00    +0.135 A 
ATOM     13  C   UNL     1       2.397   0.022  -0.021  0.00  0.00    +0.082 A 
ATOM     14  C   UNL     1       1.208  -0.682  -0.013  0.00  0.00    +0.026 A 
ATOM     15  C   UNL     1       0.002  -0.004   0.002  0.00  0.00    -0.049 A 
ATOM     16 CL   UNL     1       3.910  -0.828  -0.040  0.00  0.00    -0.080 Cl
BRANCH  12  17
ATOM     17  O   UNL     1       3.548   2.106  -0.021  0.00  0.00    -0.505 OA
ATOM     18  H   UNL     1       3.895   2.303   0.860  0.00  0.00    +0.292 HD
ENDBRANCH  12  17
ENDBRANCH   1  15
BRANCH   1  19
ATOM     19  C   UNL     1      -1.613  -1.235  -1.388  0.00  0.00    +0.347 C 
ATOM     20  O   UNL     1      -1.210  -2.317  -1.780  0.00  0.00    -0.248 OA
ATOM     21  O   UNL     1      -2.275  -0.527  -2.127  0.00  0.00    -0.248 OA
ENDBRANCH   1  19
TORSDOF 4
