REMARK  Name = ZINC02726778
REMARK  11 active torsions:
REMARK  status: ('A' for Active; 'I' for Inactive)
REMARK    1  A    between atoms: C_1  and  C_2
REMARK    2  A    between atoms: C_4  and  C_35
REMARK    3  A    between atoms: C_5  and  C_18
REMARK    4  A    between atoms: C_6  and  C_17
REMARK    5  A    between atoms: C_7  and  C_8
REMARK    6  A    between atoms: C_8  and  O_9
REMARK    7  A    between atoms: O_9  and  C_10
REMARK    8  A    between atoms: C_20  and  C_33
REMARK    9  A    between atoms: C_21  and  N_32
REMARK   10  A    between atoms: C_28  and  C_30
REMARK   11  A    between atoms: C_28  and  C_31
REMARK                            x       y       z     vdW  Elec       q    Type
REMARK                         _______ _______ _______ _____ _____    ______ ____
ROOT
ATOM      1  C   UNL     1      -3.096  -2.285   5.865  0.00  0.00    +0.044 C 
ATOM      2  C   UNL     1      -3.131  -1.011   5.060  0.00  0.00    -0.044 A 
ATOM      3  C   UNL     1      -4.192  -0.758   4.211  0.00  0.00    +0.007 A 
ATOM      4  C   UNL     1      -4.227   0.413   3.477  0.00  0.00    -0.046 A 
ATOM      5  C   UNL     1      -3.194   1.326   3.585  0.00  0.00    -0.028 A 
ATOM      6  C   UNL     1      -2.133   1.073   4.433  0.00  0.00    -0.039 A 
ATOM      7  C   UNL     1      -2.101  -0.095   5.171  0.00  0.00    -0.004 A 
ATOM      8  C   UNL     1      -1.011   2.072   4.555  0.00  0.00    +0.044 C 
ATOM      9  C   UNL     1      -5.387   0.691   2.557  0.00  0.00    +0.044 C 
ENDROOT
BRANCH   5  10
ATOM     10  C   UNL     1      -3.229   2.600   2.781  0.00  0.00    +0.101 C 
ATOM     11  C   UNL     1      -2.057   2.626   1.840  0.00  0.00    +0.098 C 
ATOM     12  C   UNL     1      -0.963   3.372   2.128  0.00  0.00    +0.198 C 
ATOM     13  O   UNL     1      -0.890   4.100   3.253  0.00  0.00    -0.445 OA
ATOM     14  C   UNL     1      -2.017   4.457   3.896  0.00  0.00    +0.115 C 
ATOM     15  C   UNL     1      -3.169   3.784   3.716  0.00  0.00    +0.046 C 
ATOM     16  C   UNL     1      -4.353   4.161   4.385  0.00  0.00    +0.164 C 
ATOM     17  O   UNL     1      -5.369   3.518   4.214  0.00  0.00    -0.292 OA
ATOM     18  C   UNL     1      -4.376   5.349   5.308  0.00  0.00    +0.086 C 
ATOM     19  C   UNL     1      -3.308   6.351   4.857  0.00  0.00    -0.021 C 
ATOM     20  C   UNL     1      -1.954   5.639   4.834  0.00  0.00    +0.081 C 
ATOM     21  C   UNL     1      -3.643   6.864   3.455  0.00  0.00    +0.012 C 
ATOM     22  C   UNL     1      -3.259   7.526   5.836  0.00  0.00    +0.012 C 
BRANCH  12  23
ATOM     23  N   UNL     1       0.092   3.384   1.250  0.00  0.00    -0.328 N 
ATOM     24  H   UNL     1       0.050   2.861   0.434  0.00  0.00    +0.145 HD
ATOM     25  H   UNL     1       0.880   3.914   1.446  0.00  0.00    +0.145 HD
ENDBRANCH  12  23
BRANCH  11  26
ATOM     26  C   UNL     1      -2.097   1.857   0.632  0.00  0.00    +0.101 C 
ATOM     27  N   UNL     1      -2.128   1.247  -0.326  0.00  0.00    -0.191 NA
ENDBRANCH  11  26
ENDBRANCH   5  10
BRANCH   7  28
ATOM     28  C   UNL     1      -0.945  -0.371   6.097  0.00  0.00    +0.265 C 
BRANCH  28  29
ATOM     29  O   UNL     1      -1.235   0.158   7.393  0.00  0.00    -0.487 OA
BRANCH  29  30
ATOM     30  C   UNL     1      -0.288  -0.007   8.353  0.00  0.00    +0.121 A 
ATOM     31  C   UNL     1       0.895  -0.669   8.056  0.00  0.00    +0.047 A 
ATOM     32  C   UNL     1       1.858  -0.832   9.032  0.00  0.00    +0.023 A 
ATOM     33  C   UNL     1       1.641  -0.344  10.308  0.00  0.00    +0.041 A 
ATOM     34  C   UNL     1       0.460   0.312  10.608  0.00  0.00    +0.023 A 
ATOM     35  C   UNL     1      -0.504   0.481   9.633  0.00  0.00    +0.047 A 
ATOM     36 CL   UNL     1       2.851  -0.555  11.535  0.00  0.00    -0.084 Cl
ENDBRANCH  29  30
ENDBRANCH  28  29
ENDBRANCH   7  28
TORSDOF 6
