REMARK  Name = ZINC09491896
REMARK  7 active torsions:
REMARK  status: ('A' for Active; 'I' for Inactive)
REMARK    1  A    between atoms: C_3  and  C_6
REMARK    2  A    between atoms: C_16  and  C_18
REMARK    3  A    between atoms: C_23  and  C_25
REMARK    4  A    between atoms: C_25  and  O_26
REMARK    5  A    between atoms: O_26  and  C_27
REMARK    6  A    between atoms: C_27  and  C_29
REMARK    7  A    between atoms: C_32  and  N_35
REMARK                            x       y       z     vdW  Elec       q    Type
REMARK                         _______ _______ _______ _____ _____    ______ ____
ROOT
ATOM      1  C   UNL     1       0.869   7.537   2.627  0.00  0.00    +0.051 C 
ATOM      2  C   UNL     1       0.043   6.464   2.655  0.00  0.00    -0.021 C 
ATOM      3  C   UNL     1      -0.198   5.750   3.951  0.00  0.00    +0.037 C 
ATOM      4  C   UNL     1      -1.259   4.672   3.878  0.00  0.00    +0.005 C 
ATOM      5  C   UNL     1      -1.310   3.962   2.526  0.00  0.00    +0.012 C 
ATOM      6  C   UNL     1      -1.692   4.992   1.461  0.00  0.00    +0.069 C 
ATOM      7  C   UNL     1      -0.581   6.033   1.463  0.00  0.00    +0.068 C 
ATOM      8  N   UNL     1      -0.289   6.322   0.239  0.00  0.00    -0.181 NA
ATOM      9  N   UNL     1      -0.951   5.518  -0.696  0.00  0.00    -0.179 N 
ATOM     10  C   UNL     1      -1.592   4.406   0.042  0.00  0.00    +0.176 C 
ATOM     11  C   UNL     1      -0.995   5.719  -2.028  0.00  0.00    +0.273 C 
ATOM     12  O   UNL     1      -1.604   4.946  -2.738  0.00  0.00    -0.270 OA
ENDROOT
BRANCH   1  15
ATOM     13  C   UNL     1       2.755   9.124   5.318  0.00  0.00    +0.042 A 
ATOM     14  C   UNL     1       2.377   9.050   3.966  0.00  0.00    +0.049 A 
ATOM     15  C   UNL     1       1.519   7.991   3.855  0.00  0.00    +0.128 A 
ATOM     16  O   UNL     1       1.384   7.435   5.076  0.00  0.00    -0.464 OA
ATOM     17  C   UNL     1       2.128   8.117   5.962  0.00  0.00    +0.195 A 
ENDBRANCH   1  15
BRANCH  10  18
ATOM     18  C   UNL     1      -0.722   3.175   0.026  0.00  0.00    +0.128 A 
ATOM     19  C   UNL     1      -1.159   1.903   0.017  0.00  0.00    +0.046 A 
ATOM     20  C   UNL     1      -0.013   1.076   0.008  0.00  0.00    +0.041 A 
ATOM     21  C   UNL     1       1.057   1.892   0.002  0.00  0.00    +0.195 A 
ATOM     22  O   UNL     1       0.621   3.162   0.013  0.00  0.00    -0.466 OA
ENDBRANCH  10  18
BRANCH  11  23
ATOM     23  C   UNL     1      -0.288   6.903  -2.635  0.00  0.00    +0.330 C 
BRANCH  23  24
ATOM     24  O   UNL     1      -0.484   6.898  -4.074  0.00  0.00    -0.452 OA
BRANCH  24  25
ATOM     25  C   UNL     1       0.088   7.899  -4.773  0.00  0.00    +0.340 C 
ATOM     26  O   UNL     1       0.733   8.752  -4.196  0.00  0.00    -0.245 OA
BRANCH  25  27
ATOM     27  C   UNL     1      -0.068   7.958  -6.237  0.00  0.00    +0.059 A 
ATOM     28  C   UNL     1      -0.805   6.974  -6.904  0.00  0.00    +0.017 A 
ATOM     29  C   UNL     1      -0.953   7.035  -8.265  0.00  0.00    +0.023 A 
ATOM     30  C   UNL     1      -0.362   8.069  -8.986  0.00  0.00    +0.025 A 
ATOM     31  C   UNL     1       0.377   9.048  -8.326  0.00  0.00    +0.023 A 
ATOM     32  C   UNL     1       0.525   8.995  -6.964  0.00  0.00    +0.017 A 
BRANCH  30  33
ATOM     33  N   UNL     1      -0.508   8.125 -10.367  0.00  0.00    -0.358 N 
ATOM     34  H   UNL     1      -0.096   8.845 -10.870  0.00  0.00    +0.142 HD
ATOM     35  H   UNL     1      -1.023   7.444 -10.828  0.00  0.00    +0.142 HD
ENDBRANCH  30  33
ENDBRANCH  25  27
ENDBRANCH  24  25
ENDBRANCH  23  24
ENDBRANCH  11  23
TORSDOF 7
