REMARK  Name = ZINC36597447
REMARK  14 active torsions:
REMARK  status: ('A' for Active; 'I' for Inactive)
REMARK    1  A    between atoms: C_1  and  C_2
REMARK    2  A    between atoms: C_2  and  C_3
REMARK    3  A    between atoms: C_3  and  C_4
REMARK    4  A    between atoms: C_4  and  N_5
REMARK    5  A    between atoms: C_6  and  C_8
REMARK    6  A    between atoms: C_8  and  C_10
REMARK    7  A    between atoms: C_8  and  N_17
REMARK    8  A    between atoms: C_13  and  O_16
REMARK    9  A    between atoms: N_17  and  C_18
REMARK   10  A    between atoms: C_18  and  C_19
REMARK   11  A    between atoms: C_22  and  C_24
REMARK   12  A    between atoms: C_25  and  C_27
REMARK   13  A    between atoms: C_28  and  O_34
REMARK   14  A    between atoms: C_32  and  O_33
REMARK                            x       y       z     vdW  Elec       q    Type
REMARK                         _______ _______ _______ _____ _____    ______ ____
ROOT
ATOM      1  N   UNL     1       2.245  -5.393  -4.100  0.00  0.00    -0.274 N 
ATOM      2  C   UNL     1       2.516  -5.934  -5.304  0.00  0.00    +0.255 C 
ATOM      3  O   UNL     1       2.931  -5.232  -6.207  0.00  0.00    -0.270 OA
ENDROOT
BRANCH   2   4
ATOM      4  C   UNL     1       2.309  -7.374  -5.528  0.00  0.00    +0.119 A 
ATOM      5  C   UNL     1       1.073  -7.846  -5.995  0.00  0.00    +0.133 A 
ATOM      6  C   UNL     1       0.889  -9.203  -6.202  0.00  0.00    +0.046 A 
ATOM      7  C   UNL     1       1.918 -10.092  -5.951  0.00  0.00    +0.007 A 
ATOM      8  C   UNL     1       3.140  -9.637  -5.490  0.00  0.00    +0.046 A 
ATOM      9  C   UNL     1       3.347  -8.284  -5.282  0.00  0.00    +0.133 A 
BRANCH   9  10
ATOM     10  O   UNL     1       4.549  -7.840  -4.835  0.00  0.00    -0.506 OA
ATOM     11  H   UNL     1       4.621  -7.801  -3.872  0.00  0.00    +0.292 HD
ENDBRANCH   9  10
BRANCH   5  12
ATOM     12  O   UNL     1       0.061  -6.976  -6.241  0.00  0.00    -0.506 OA
ATOM     13  H   UNL     1       0.048  -6.635  -7.146  0.00  0.00    +0.292 HD
ENDBRANCH   5  12
ENDBRANCH   2   4
BRANCH   1  14
ATOM     14  C   UNL     1       2.451  -3.960  -3.877  0.00  0.00    +0.193 C 
BRANCH  14  15
ATOM     15  C   UNL     1       3.923  -3.683  -3.711  0.00  0.00    -0.018 A 
ATOM     16  C   UNL     1       4.719  -4.576  -3.017  0.00  0.00    +0.009 A 
ATOM     17  C   UNL     1       6.069  -4.325  -2.863  0.00  0.00    +0.046 A 
ATOM     18  C   UNL     1       6.626  -3.176  -3.406  0.00  0.00    +0.117 A 
ATOM     19  C   UNL     1       5.825  -2.283  -4.103  0.00  0.00    +0.046 A 
ATOM     20  C   UNL     1       4.477  -2.541  -4.259  0.00  0.00    +0.009 A 
BRANCH  18  21
ATOM     21  O   UNL     1       7.953  -2.927  -3.256  0.00  0.00    -0.507 OA
ATOM     22  H   UNL     1       8.504  -3.291  -3.962  0.00  0.00    +0.292 HD
ENDBRANCH  18  21
ENDBRANCH  14  15
BRANCH  14  24
ATOM     23  N   UNL     1       1.931  -2.311  -2.108  0.00  0.00    -0.313 N 
ATOM     24  C   UNL     1       1.717  -3.534  -2.632  0.00  0.00    +0.238 C 
ATOM     25  O   UNL     1       0.933  -4.292  -2.101  0.00  0.00    -0.273 OA
ATOM     26  H   UNL     1       2.558  -1.704  -2.533  0.00  0.00    +0.149 HD
BRANCH  23  27
ATOM     27  C   UNL     1       1.217  -1.897  -0.898  0.00  0.00    +0.104 C 
BRANCH  27  28
ATOM     28  C   UNL     1       1.639  -0.476  -0.517  0.00  0.00    +0.018 C 
BRANCH  28  30
ATOM     29  C   UNL     1       1.315   1.377   1.127  0.00  0.00    +0.004 C 
ATOM     30  C   UNL     1       0.893  -0.044   0.747  0.00  0.00    -0.002 C 
ENDBRANCH  28  30
ENDBRANCH  27  28
ENDBRANCH  23  27
ENDBRANCH  14  24
ENDBRANCH   1  14
BRANCH   1  31
ATOM     31  C   UNL     1       1.745  -6.239  -3.013  0.00  0.00    +0.183 C 
BRANCH  31  32
ATOM     32  C   UNL     1       0.258  -6.427  -3.167  0.00  0.00    +0.122 A 
ATOM     33  C   UNL     1      -0.347  -7.494  -3.718  0.00  0.00    +0.046 A 
ATOM     34  C   UNL     1      -1.739  -7.253  -3.656  0.00  0.00    +0.045 A 
ATOM     35  C   UNL     1      -1.901  -6.053  -3.071  0.00  0.00    +0.102 A 
ATOM     36  O   UNL     1      -0.689  -5.560  -2.771  0.00  0.00    -0.463 OA
ATOM     37  C   UNL     1      -3.220  -5.379  -2.793  0.00  0.00    +0.086 C 
ENDBRANCH  31  32
ENDBRANCH   1  31
TORSDOF 12
