REMARK  Name = ZINC35190343
REMARK  9 active torsions:
REMARK  status: ('A' for Active; 'I' for Inactive)
REMARK    1  A    between atoms: C_1  and  C_2
REMARK    2  A    between atoms: C_9  and  N_27
REMARK    3  A    between atoms: C_10  and  C_13
REMARK    4  A    between atoms: N_17  and  C_21
REMARK    5  A    between atoms: C_21  and  C_22
REMARK    6  A    between atoms: N_27  and  C_28
REMARK    7  A    between atoms: C_28  and  C_29
REMARK    8  A    between atoms: C_29  and  C_30
REMARK    9  A    between atoms: C_30  and  N_31
REMARK                            x       y       z     vdW  Elec       q    Type
REMARK                         _______ _______ _______ _____ _____    ______ ____
ROOT
ATOM      1  C   UNL     1       0.238   1.460  -0.026  0.00  0.00    +0.047 C 
ATOM      2  C   UNL     1      -0.003  -0.027  -0.011  0.00  0.00    -0.007 A 
ATOM      3  C   UNL     1      -0.235  -0.696  -1.176  0.00  0.00    +0.008 A 
ATOM      4  C   UNL     1      -0.458  -2.080  -1.146  0.00  0.00    +0.019 A 
ATOM      5  C   UNL     1      -0.441  -2.744   0.032  0.00  0.00    +0.096 A 
ATOM      6  N   UNL     1      -0.209  -2.084   1.202  0.00  0.00    -0.267 N 
ATOM      7  C   UNL     1       0.017  -0.736   1.204  0.00  0.00    +0.145 A 
ATOM      8  N   UNL     1       0.251  -0.073   2.337  0.00  0.00    -0.214 NA
ATOM      9  C   UNL     1       0.281  -0.691   3.509  0.00  0.00    +0.134 A 
ATOM     10  C   UNL     1       0.060  -2.087   3.568  0.00  0.00    +0.081 A 
ATOM     11  C   UNL     1      -0.200  -2.777   2.361  0.00  0.00    +0.267 A 
ATOM     12  O   UNL     1      -0.396  -3.981   2.364  0.00  0.00    -0.267 OA
ENDROOT
BRANCH  10  13
ATOM     13  C   UNL     1       0.085  -2.773   4.805  0.00  0.00    +0.037 C 
ATOM     14  C   UNL     1       1.069  -3.685   5.059  0.00  0.00    +0.077 C 
ATOM     15  C   UNL     1       2.215  -4.021   4.284  0.00  0.00    +0.259 C 
ATOM     16  O   UNL     1       2.437  -3.466   3.222  0.00  0.00    -0.269 OA
ATOM     17  N   UNL     1       3.031  -4.950   4.749  0.00  0.00    -0.248 N 
ATOM     18  C   UNL     1       2.784  -5.565   5.927  0.00  0.00    +0.121 C 
ATOM     19  S   UNL     1       3.694  -6.783   6.714  0.00  0.00    -0.027 S 
ATOM     20  S   UNL     1       1.272  -4.777   6.459  0.00  0.00    -0.061 S 
BRANCH  17  21
ATOM     21  C   UNL     1       4.220  -5.320   3.977  0.00  0.00    +0.189 C 
BRANCH  21  22
ATOM     22  C   UNL     1       5.378  -4.449   4.389  0.00  0.00    +0.122 A 
ATOM     23  C   UNL     1       6.258  -4.722   5.369  0.00  0.00    +0.046 A 
ATOM     24  C   UNL     1       7.170  -3.643   5.413  0.00  0.00    +0.041 A 
ATOM     25  C   UNL     1       6.792  -2.773   4.459  0.00  0.00    +0.195 A 
ATOM     26  O   UNL     1       5.709  -3.270   3.838  0.00  0.00    -0.466 OA
ENDBRANCH  21  22
ENDBRANCH  17  21
ENDBRANCH  10  13
BRANCH   9  27
ATOM     27  N   UNL     1       0.526   0.022   4.663  0.00  0.00    -0.328 N 
ATOM     28  H   UNL     1       0.547  -0.433   5.519  0.00  0.00    +0.147 HD
BRANCH  27  29
ATOM     29  C   UNL     1       0.754   1.468   4.596  0.00  0.00    +0.104 C 
BRANCH  29  30
ATOM     30  C   UNL     1       1.000   2.011   6.005  0.00  0.00    +0.040 C 
BRANCH  30  31
ATOM     31  C   UNL     1       1.239   3.521   5.934  0.00  0.00    +0.124 C 
BRANCH  31  32
ATOM     32  N   UNL     1       1.474   4.042   7.284  0.00  0.00    -0.338 N 
ATOM     33  C   UNL     1       0.523   4.501   8.154  0.00  0.00    +0.104 A 
ATOM     34  C   UNL     1       1.169   4.881   9.273  0.00  0.00    +0.101 A 
ATOM     35  N   UNL     1       2.480   4.659   9.090  0.00  0.00    -0.352 N 
ATOM     36  C   UNL     1       2.669   4.152   7.903  0.00  0.00    +0.173 A 
ATOM     37  H   UNL     1       3.176   4.844   9.739  0.00  0.00    +0.166 HD
ENDBRANCH  31  32
ENDBRANCH  30  31
ENDBRANCH  29  30
ENDBRANCH  27  29
ENDBRANCH   9  27
TORSDOF 8
