REMARK  Name = ZINC04900904
REMARK  3 active torsions:
REMARK  status: ('A' for Active; 'I' for Inactive)
REMARK    1  A    between atoms: C_1  and  C_2
REMARK    2  A    between atoms: C_9  and  N_19
REMARK    3  A    between atoms: N_19  and  C_20
REMARK                            x       y       z     vdW  Elec       q    Type
REMARK                         _______ _______ _______ _____ _____    ______ ____
ROOT
ATOM      1  C   UNL     1       3.318   8.684  -3.185  0.00  0.00    +0.044 C 
ATOM      2  C   UNL     1       3.163   8.046  -1.829  0.00  0.00    -0.046 A 
ATOM      3  C   UNL     1       3.803   8.578  -0.717  0.00  0.00    +0.023 A 
ATOM      4  C   UNL     1       3.640   7.970   0.512  0.00  0.00    +0.113 A 
ATOM      5  N   UNL     1       2.882   6.897   0.640  0.00  0.00    -0.240 NA
ATOM      6  C   UNL     1       2.260   6.358  -0.396  0.00  0.00    +0.130 A 
ATOM      7  C   UNL     1       2.380   6.918  -1.663  0.00  0.00    +0.047 A 
ATOM      8  N   UNL     1       1.474   5.222  -0.215  0.00  0.00    -0.229 N 
ATOM      9  C   UNL     1       0.028   5.214   0.033  0.00  0.00    +0.200 C 
ATOM     10  C   UNL     1      -0.370   3.765   0.160  0.00  0.00    +0.003 A 
ATOM     11  C   UNL     1      -1.571   3.134   0.391  0.00  0.00    +0.008 A 
ATOM     12  C   UNL     1      -1.625   1.752   0.451  0.00  0.00    +0.000 A 
ATOM     13  C   UNL     1      -0.473   1.002   0.290  0.00  0.00    +0.001 A 
ATOM     14  C   UNL     1       0.736   1.624   0.058  0.00  0.00    +0.013 A 
ATOM     15  C   UNL     1       0.798   3.018  -0.009  0.00  0.00    +0.044 A 
ATOM     16  C   UNL     1       1.916   3.953  -0.238  0.00  0.00    +0.254 C 
ATOM     17  O   UNL     1       3.071   3.622  -0.422  0.00  0.00    -0.270 OA
ENDROOT
BRANCH   9  18
ATOM     18  N   UNL     1      -0.276   5.930   1.274  0.00  0.00    -0.321 N 
ATOM     19  H   UNL     1      -0.065   5.527   2.131  0.00  0.00    +0.148 HD
BRANCH  18  20
ATOM     20  C   UNL     1      -0.869   7.194   1.224  0.00  0.00    +0.043 A 
ATOM     21  C   UNL     1      -1.054   7.828   0.002  0.00  0.00    +0.024 A 
ATOM     22  C   UNL     1      -1.645   9.076  -0.044  0.00  0.00    +0.002 A 
ATOM     23  C   UNL     1      -2.044   9.698   1.125  0.00  0.00    +0.001 A 
ATOM     24  C   UNL     1      -1.857   9.073   2.343  0.00  0.00    +0.017 A 
ATOM     25  C   UNL     1      -1.270   7.822   2.397  0.00  0.00    +0.039 A 
ATOM     26 BR   UNL     1      -1.015   6.967   4.064  0.00  0.00    -0.048 Br
ENDBRANCH  18  20
ENDBRANCH   9  18
TORSDOF 2
