REMARK  Name = ZINC20459034
REMARK  9 active torsions:
REMARK  status: ('A' for Active; 'I' for Inactive)
REMARK    1  A    between atoms: C_1  and  O_2
REMARK    2  A    between atoms: O_2  and  C_3
REMARK    3  A    between atoms: C_3  and  C_5
REMARK    4  A    between atoms: C_11  and  C_12
REMARK    5  A    between atoms: C_19  and  C_28
REMARK    6  A    between atoms: C_21  and  C_24
REMARK    7  A    between atoms: C_22  and  N_23
REMARK    8  A    between atoms: C_24  and  O_26
REMARK    9  A    between atoms: O_26  and  C_27
REMARK                            x       y       z     vdW  Elec       q    Type
REMARK                         _______ _______ _______ _____ _____    ______ ____
ROOT
ATOM      1  C   UNL     1      -1.460  -2.229  -0.123  0.00  0.00    +0.110 C 
ATOM      2  C   UNL     1      -2.768  -2.693  -0.016  0.00  0.00    +0.100 A 
ATOM      3  N   UNL     1      -3.106  -4.016  -0.093  0.00  0.00    -0.289 N 
ATOM      4  C   UNL     1      -4.406  -4.349   0.025  0.00  0.00    +0.267 A 
ATOM      5  O   UNL     1      -4.788  -5.503  -0.033  0.00  0.00    -0.266 OA
ATOM      6  C   UNL     1      -5.332  -3.225   0.229  0.00  0.00    +0.079 A 
ATOM      7  C   UNL     1      -6.680  -3.233   0.381  0.00  0.00    +0.028 C 
ATOM      8  S   UNL     1      -4.200  -1.848   0.220  0.00  0.00    -0.065 S 
ATOM      9  C   UNL     1      -2.003  -4.990  -0.303  0.00  0.00    +0.160 C 
ATOM     10  C   UNL     1      -0.585  -4.500  -0.421  0.00  0.00    +0.085 C 
ATOM     11  C   UNL     1      -0.336  -3.139  -0.336  0.00  0.00    +0.054 C 
ENDROOT
BRANCH   7  12
ATOM     12  C   UNL     1      -7.394  -4.508   0.536  0.00  0.00    -0.024 A 
ATOM     13  C   UNL     1      -6.829  -5.544   1.289  0.00  0.00    +0.008 A 
ATOM     14  C   UNL     1      -7.506  -6.737   1.429  0.00  0.00    +0.001 A 
ATOM     15  C   UNL     1      -8.740  -6.912   0.828  0.00  0.00    +0.000 A 
ATOM     16  C   UNL     1      -9.306  -5.893   0.082  0.00  0.00    +0.001 A 
ATOM     17  C   UNL     1      -8.645  -4.691  -0.064  0.00  0.00    +0.008 A 
ENDBRANCH   7  12
BRANCH   9  18
ATOM     18  C   UNL     1      -2.317  -5.761  -1.560  0.00  0.00    -0.020 A 
ATOM     19  C   UNL     1      -2.846  -5.108  -2.657  0.00  0.00    +0.006 A 
ATOM     20  C   UNL     1      -3.134  -5.815  -3.810  0.00  0.00    +0.000 A 
ATOM     21  C   UNL     1      -2.892  -7.175  -3.865  0.00  0.00    +0.000 A 
ATOM     22  C   UNL     1      -2.362  -7.827  -2.768  0.00  0.00    +0.000 A 
ATOM     23  C   UNL     1      -2.070  -7.120  -1.617  0.00  0.00    +0.006 A 
ENDBRANCH   9  18
BRANCH  11  24
ATOM     24  N   UNL     1       0.948  -2.653  -0.445  0.00  0.00    -0.357 N 
ATOM     25  H   UNL     1       1.225  -1.890   0.087  0.00  0.00    +0.142 HD
ATOM     26  H   UNL     1       1.576  -3.074  -1.053  0.00  0.00    +0.142 HD
ENDBRANCH  11  24
BRANCH   1  27
ATOM     27  C   UNL     1      -1.212  -0.836  -0.029  0.00  0.00    +0.343 C 
ATOM     28  O   UNL     1      -2.143  -0.057   0.060  0.00  0.00    -0.245 OA
BRANCH  27  30
ATOM     29  C   UNL     1       0.232   1.040   0.059  0.00  0.00    +0.280 C 
ATOM     30  O   UNL     1       0.056  -0.375  -0.039  0.00  0.00    -0.464 OA
ENDBRANCH  27  30
ENDBRANCH   1  27
BRANCH  10  31
ATOM     31  C   UNL     1       0.464  -5.403  -0.618  0.00  0.00    +0.339 C 
ATOM     32  O   UNL     1       1.591  -4.990  -0.831  0.00  0.00    -0.245 OA
BRANCH  31  33
ATOM     33  O   UNL     1       0.228  -6.733  -0.573  0.00  0.00    -0.465 OA
ATOM     34  C   UNL     1       1.347  -7.597  -0.784  0.00  0.00    +0.280 C 
ENDBRANCH  31  33
ENDBRANCH  10  31
TORSDOF 7
