REMARK  Name = ZINC39015679
REMARK  9 active torsions:
REMARK  status: ('A' for Active; 'I' for Inactive)
REMARK    1  A    between atoms: C_1  and  C_2
REMARK    2  A    between atoms: C_6  and  C_7
REMARK    3  A    between atoms: C_7  and  C_9
REMARK    4  A    between atoms: C_7  and  C_25
REMARK    5  A    between atoms: C_12  and  O_15
REMARK    6  A    between atoms: O_15  and  C_16
REMARK    7  A    between atoms: C_16  and  C_18
REMARK    8  A    between atoms: C_26  and  C_32
REMARK    9  A    between atoms: C_29  and  O_31
REMARK                            x       y       z     vdW  Elec       q    Type
REMARK                         _______ _______ _______ _____ _____    ______ ____
ROOT
ATOM      1  C   UNL     1       0.030  -0.373   2.566  0.00  0.00    +0.088 C 
ENDROOT
BRANCH   1   7
ATOM      2  C   UNL     1       2.471  -1.122   0.689  0.00  0.00    +0.068 C 
ATOM      3  C   UNL     1       1.012  -1.280   0.347  0.00  0.00    +0.068 A 
ATOM      4  N   UNL     1       0.534  -1.755  -0.775  0.00  0.00    -0.176 NA
ATOM      5  N   UNL     1      -0.864  -1.737  -0.702  0.00  0.00    -0.243 N 
ATOM      6  C   UNL     1      -1.211  -1.234   0.504  0.00  0.00    +0.271 A 
ATOM      7  C   UNL     1      -0.064  -0.948   1.176  0.00  0.00    +0.052 A 
ATOM      8  O   UNL     1      -2.476  -1.053   0.963  0.00  0.00    -0.266 OA
ATOM      9  H   UNL     1      -1.476  -2.033  -1.394  0.00  0.00    +0.192 HD
ENDBRANCH   1   7
BRANCH   1  10
ATOM     10  C   UNL     1       1.210  -0.980   3.281  0.00  0.00    -0.035 A 
ATOM     11  C   UNL     1       1.375  -2.353   3.298  0.00  0.00    +0.008 A 
ATOM     12  C   UNL     1       2.456  -2.911   3.953  0.00  0.00    +0.046 A 
ATOM     13  C   UNL     1       3.376  -2.094   4.593  0.00  0.00    +0.132 A 
ATOM     14  C   UNL     1       3.207  -0.717   4.575  0.00  0.00    +0.046 A 
ATOM     15  C   UNL     1       2.128  -0.163   3.914  0.00  0.00    +0.008 A 
BRANCH  13  16
ATOM     16  O   UNL     1       4.439  -2.641   5.239  0.00  0.00    -0.422 OA
BRANCH  16  17
ATOM     17  C   UNL     1       5.468  -3.092   4.494  0.00  0.00    +0.344 C 
ATOM     18  O   UNL     1       5.388  -3.085   3.281  0.00  0.00    -0.245 OA
BRANCH  17  19
ATOM     19  C   UNL     1       6.691  -3.594   5.151  0.00  0.00    +0.059 A 
ATOM     20  C   UNL     1       6.783  -3.608   6.544  0.00  0.00    +0.016 A 
ATOM     21  C   UNL     1       7.928  -4.078   7.151  0.00  0.00    +0.016 A 
ATOM     22  C   UNL     1       8.986  -4.535   6.383  0.00  0.00    +0.018 A 
ATOM     23  C   UNL     1       8.901  -4.524   5.000  0.00  0.00    +0.016 A 
ATOM     24  C   UNL     1       7.759  -4.061   4.381  0.00  0.00    +0.016 A 
ATOM     25 BR   UNL     1      10.553  -5.178   7.224  0.00  0.00    -0.050 Br
ENDBRANCH  17  19
ENDBRANCH  16  17
ENDBRANCH  13  16
ENDBRANCH   1  10
BRANCH   1  26
ATOM     26  C   UNL     1      -1.233  -0.686   3.325  0.00  0.00    +0.017 C 
ATOM     27  C   UNL     1      -2.105   0.172   3.859  0.00  0.00    +0.065 C 
ATOM     28  N   UNL     1      -3.118  -0.487   4.465  0.00  0.00    -0.156 NA
ATOM     29  N   UNL     1      -3.037  -1.716   4.405  0.00  0.00    -0.151 NA
ATOM     30  C   UNL     1      -1.813  -2.050   3.656  0.00  0.00    +0.284 C 
ATOM     31  C   UNL     1      -1.978   1.672   3.796  0.00  0.00    +0.067 C 
BRANCH  30  32
ATOM     32  O   UNL     1      -0.911  -2.798   4.473  0.00  0.00    -0.366 OA
ATOM     33  H   UNL     1      -1.234  -3.677   4.713  0.00  0.00    +0.212 HD
ENDBRANCH  30  32
ENDBRANCH   1  26
TORSDOF 7
