REMARK  Name = ZINC28120890
REMARK  12 active torsions:
REMARK  status: ('A' for Active; 'I' for Inactive)
REMARK    1  A    between atoms: C_1  and  C_2
REMARK    2  A    between atoms: C_2  and  C_3
REMARK    3  A    between atoms: C_8  and  C_28
REMARK    4  A    between atoms: C_9  and  C_25
REMARK    5  A    between atoms: C_12  and  C_15
REMARK    6  A    between atoms: C_13  and  O_14
REMARK    7  A    between atoms: C_15  and  N_16
REMARK    8  A    between atoms: N_19  and  C_22
REMARK    9  A    between atoms: C_22  and  C_23
REMARK   10  A    between atoms: C_23  and  O_24
REMARK   11  A    between atoms: C_25  and  C_26
REMARK   12  A    between atoms: C_25  and  C_27
REMARK                            x       y       z     vdW  Elec       q    Type
REMARK                         _______ _______ _______ _____ _____    ______ ____
ROOT
ATOM      1  C   UNL     1      -1.897   2.981   4.490  0.00  0.00    -0.005 A 
ATOM      2  C   UNL     1      -3.098   2.330   4.482  0.00  0.00    +0.022 A 
ATOM      3  C   UNL     1      -3.265   1.196   3.688  0.00  0.00    +0.065 A 
ATOM      4  C   UNL     1      -4.548   0.468   3.655  0.00  0.00    +0.202 A 
ATOM      5  O   UNL     1      -5.504   0.829   4.318  0.00  0.00    -0.286 OA
ATOM      6  C   UNL     1      -4.616  -0.717   2.780  0.00  0.00    +0.093 A 
ATOM      7  C   UNL     1      -3.510  -1.066   2.066  0.00  0.00    +0.122 A 
ATOM      8  O   UNL     1      -2.370  -0.376   2.127  0.00  0.00    -0.458 OA
ATOM      9  C   UNL     1      -2.206   0.719   2.895  0.00  0.00    +0.144 A 
ATOM     10  C   UNL     1      -0.993   1.393   2.915  0.00  0.00    +0.021 A 
ATOM     11  C   UNL     1      -0.839   2.514   3.713  0.00  0.00    +0.125 A 
ENDROOT
BRANCH   6  12
ATOM     12  C   UNL     1      -5.857  -1.510   2.682  0.00  0.00    +0.116 A 
ATOM     13  N   UNL     1      -6.095  -2.585   1.960  0.00  0.00    -0.239 NA
ATOM     14  C   UNL     1      -7.287  -3.215   1.971  0.00  0.00    +0.079 A 
ATOM     15  C   UNL     1      -7.670  -4.372   1.253  0.00  0.00    +0.029 A 
ATOM     16  C   UNL     1      -8.925  -4.882   1.372  0.00  0.00    +0.002 A 
ATOM     17  C   UNL     1      -9.876  -4.295   2.195  0.00  0.00    +0.001 A 
ATOM     18  C   UNL     1      -9.541  -3.162   2.915  0.00  0.00    +0.017 A 
ATOM     19  C   UNL     1      -8.277  -2.639   2.802  0.00  0.00    +0.040 A 
ATOM     20  S   UNL     1      -7.422  -1.250   3.505  0.00  0.00    -0.067 S 
ENDBRANCH   6  12
BRANCH   7  21
ATOM     21  C   UNL     1      -3.577  -2.277   1.171  0.00  0.00    +0.050 C 
ATOM     22  C   UNL     1      -4.144  -1.873  -0.192  0.00  0.00    +0.015 C 
ATOM     23  C   UNL     1      -2.172  -2.855   0.988  0.00  0.00    +0.015 C 
ENDBRANCH   7  21
BRANCH   1  25
ATOM     24  C   UNL     1      -1.975   5.460   4.509  0.00  0.00    +0.009 C 
ATOM     25  C   UNL     1      -1.714   4.207   5.347  0.00  0.00    +0.035 C 
ENDBRANCH   1  25
BRANCH  11  26
ATOM     26  O   UNL     1       0.350   3.167   3.734  0.00  0.00    -0.506 OA
ATOM     27  H   UNL     1       1.189   2.802   3.123  0.00  0.00    +0.292 HD
ENDBRANCH  11  26
BRANCH  10  28
ATOM     28  C   UNL     1       0.158   0.901   2.074  0.00  0.00    -0.035 C 
BRANCH  28  29
ATOM     29  N   UNL     1       0.105   1.540   0.752  0.00  0.00    +0.384 N 
ATOM     30  C   UNL     1       1.332   1.272  -0.011  0.00  0.00    -0.063 C 
ATOM     31  C   UNL     1       1.206   1.886  -1.408  0.00  0.00    +0.066 C 
ATOM     32  N   UNL     1       0.970   3.331  -1.286  0.00  0.00    -0.304 NA
ATOM     33  C   UNL     1      -0.258   3.599  -0.523  0.00  0.00    +0.066 C 
ATOM     34  C   UNL     1      -0.132   2.985   0.873  0.00  0.00    -0.063 C 
ATOM     35  H   UNL     1      -0.740   1.103   0.200  0.00  0.00    -0.081 HD
BRANCH  32  36
ATOM     36  C   UNL     1       0.918   3.970  -2.607  0.00  0.00    +0.112 C 
BRANCH  36  37
ATOM     37  C   UNL     1       0.588   5.455  -2.444  0.00  0.00    +0.171 C 
BRANCH  37  38
ATOM     38  O   UNL     1       1.650   6.105  -1.744  0.00  0.00    -0.394 OA
ATOM     39  H   UNL     1       1.591   7.183  -1.532  0.00  0.00    +0.209 HD
ENDBRANCH  37  38
ENDBRANCH  36  37
ENDBRANCH  32  36
ENDBRANCH  28  29
ENDBRANCH  10  28
TORSDOF 9
