REMARK  Name = ZINC35807479
REMARK  3 active torsions:
REMARK  status: ('A' for Active; 'I' for Inactive)
REMARK    1  A    between atoms: C_1  and  C_2
REMARK    2  A    between atoms: C_5  and  C_8
REMARK    3  A    between atoms: C_8  and  C_10
REMARK                            x       y       z     vdW  Elec       q    Type
REMARK                         _______ _______ _______ _____ _____    ______ ____
ROOT
ATOM      1  C   UNL     1       0.075  -5.006   1.280  0.00  0.00    +0.066 C 
ATOM      2  C   UNL     1      -1.367  -5.275   1.775  0.00  0.00    -0.055 C 
ATOM      3  C   UNL     1      -1.781  -4.157   2.747  0.00  0.00    -0.016 C 
ATOM      4  C   UNL     1      -1.348  -4.644   4.144  0.00  0.00    -0.020 C 
ATOM      5  C   UNL     1      -0.673  -6.009   3.904  0.00  0.00    -0.076 C 
ATOM      6  N   UNL     1      -1.232  -6.509   2.608  0.00  0.00    +0.395 N 
ATOM      7  C   UNL     1      -0.224  -7.343   1.928  0.00  0.00    +0.060 C 
ATOM      8  C   UNL     1       0.644  -6.420   1.076  0.00  0.00    +0.085 C 
ATOM      9  C   UNL     1       0.623  -6.809  -0.376  0.00  0.00    -0.011 A 
ATOM     10  C   UNL     1      -0.384  -6.941  -1.306  0.00  0.00    +0.006 A 
ATOM     11  C   UNL     1      -0.084  -7.324  -2.601  0.00  0.00    +0.000 A 
ATOM     12  C   UNL     1       1.228  -7.574  -2.958  0.00  0.00    +0.002 A 
ATOM     13  C   UNL     1       2.240  -7.444  -2.029  0.00  0.00    +0.023 A 
ATOM     14  C   UNL     1       1.947  -7.058  -0.723  0.00  0.00    +0.038 A 
ATOM     15  N   UNL     1       2.781  -6.859   0.379  0.00  0.00    -0.285 N 
ATOM     16  C   UNL     1       2.094  -6.483   1.474  0.00  0.00    +0.228 C 
ATOM     17  O   UNL     1       2.555  -6.240   2.570  0.00  0.00    -0.275 OA
ATOM     18  C   UNL     1       0.604  -8.107   2.926  0.00  0.00    -0.025 A 
ATOM     19  C   UNL     1       1.438  -7.723   3.952  0.00  0.00    +0.024 A 
ATOM     20  C   UNL     1       2.080  -8.682   4.718  0.00  0.00    +0.041 A 
ATOM     21  C   UNL     1       1.881 -10.025   4.447  0.00  0.00    +0.022 A 
ATOM     22  C   UNL     1       1.047 -10.412   3.420  0.00  0.00    +0.025 A 
ATOM     23  C   UNL     1       0.397  -9.454   2.645  0.00  0.00    +0.036 A 
ATOM     24  N   UNL     1      -0.479  -9.594   1.567  0.00  0.00    -0.286 N 
ATOM     25  C   UNL     1      -0.889  -8.404   1.088  0.00  0.00    +0.212 C 
ATOM     26  O   UNL     1      -1.648  -8.221   0.160  0.00  0.00    -0.277 OA
ATOM     27 CL   UNL     1       3.132  -8.201   6.012  0.00  0.00    -0.084 Cl
ATOM     28  H   UNL     1       3.744  -6.979   0.358  0.00  0.00    +0.155 HD
ATOM     29  H   UNL     1      -0.760 -10.448   1.205  0.00  0.00    +0.155 HD
ATOM     30  H   UNL     1      -2.114  -6.984   2.731  0.00  0.00    -0.079 HD
ENDROOT
BRANCH   1  31
ATOM     31  C   UNL     1       0.058  -4.245  -0.021  0.00  0.00    +0.166 C 
ATOM     32  O   UNL     1      -0.931  -4.265  -0.723  0.00  0.00    -0.292 OA
BRANCH  31  37
ATOM     33  C   UNL     1       4.683  -1.248  -1.657  0.00  0.00    +0.044 C 
ATOM     34  C   UNL     1       3.470  -2.034  -1.228  0.00  0.00    -0.050 A 
ATOM     35  C   UNL     1       2.344  -2.055  -2.032  0.00  0.00    +0.004 A 
ATOM     36  C   UNL     1       1.231  -2.771  -1.647  0.00  0.00    +0.011 A 
ATOM     37  C   UNL     1       1.242  -3.478  -0.440  0.00  0.00    +0.018 A 
ATOM     38  C   UNL     1       2.385  -3.453   0.366  0.00  0.00    +0.011 A 
ATOM     39  C   UNL     1       3.492  -2.736  -0.036  0.00  0.00    +0.004 A 
ENDBRANCH  31  37
ENDBRANCH   1  31
TORSDOF 2
