REMARK  Name = ZINC50777906
REMARK  7 active torsions:
REMARK  status: ('A' for Active; 'I' for Inactive)
REMARK    1  A    between atoms: C_1  and  C_2
REMARK    2  A    between atoms: C_5  and  C_7
REMARK    3  A    between atoms: C_7  and  C_9
REMARK    4  A    between atoms: C_7  and  N_10
REMARK    5  A    between atoms: C_11  and  C_13
REMARK    6  A    between atoms: C_18  and  N_19
REMARK    7  A    between atoms: N_19  and  C_20
REMARK                            x       y       z     vdW  Elec       q    Type
REMARK                         _______ _______ _______ _____ _____    ______ ____
ROOT
ATOM      1  N   UNL     1       2.840  -2.960  -0.879  0.00  0.00    -0.302 N 
ATOM      2  C   UNL     1       3.505  -3.974  -1.467  0.00  0.00    +0.246 C 
ATOM      3  O   UNL     1       3.175  -5.124  -1.251  0.00  0.00    -0.270 OA
ATOM      4  H   UNL     1       3.103  -2.042  -1.052  0.00  0.00    +0.150 HD
ENDROOT
BRANCH   2   5
ATOM      5  C   UNL     1       4.634  -3.688  -2.372  0.00  0.00    +0.059 A 
ATOM      6  C   UNL     1       4.940  -2.370  -2.720  0.00  0.00    +0.035 A 
ATOM      7  C   UNL     1       5.996  -2.110  -3.567  0.00  0.00    +0.042 A 
ATOM      8  C   UNL     1       6.758  -3.151  -4.076  0.00  0.00    +0.022 A 
ATOM      9  C   UNL     1       6.467  -4.457  -3.742  0.00  0.00    +0.025 A 
ATOM     10  C   UNL     1       5.410  -4.738  -2.885  0.00  0.00    +0.039 A 
ATOM     11 CL   UNL     1       6.374  -0.471  -3.998  0.00  0.00    -0.084 Cl
BRANCH  10  12
ATOM     12  N   UNL     1       5.120  -6.053  -2.542  0.00  0.00    -0.346 N 
ATOM     13  C   UNL     1       6.003  -7.136  -2.981  0.00  0.00    +0.125 C 
ATOM     14  H   UNL     1       4.333  -6.254  -2.011  0.00  0.00    +0.146 HD
ENDBRANCH  10  12
ENDBRANCH   2   5
BRANCH   1  15
ATOM     15  C   UNL     1       1.718  -3.243   0.020  0.00  0.00    +0.136 C 
ATOM     16  C   UNL     1       2.251  -3.516   1.428  0.00  0.00    +0.036 C 
BRANCH  15  21
ATOM     17  C   UNL     1       0.070   1.522   0.133  0.00  0.00    +0.086 C 
ATOM     18  C   UNL     1       0.073   0.016   0.104  0.00  0.00    +0.102 A 
ATOM     19  C   UNL     1      -1.016  -0.774   0.105  0.00  0.00    +0.045 A 
ATOM     20  C   UNL     1      -0.554  -2.110   0.074  0.00  0.00    +0.047 A 
ATOM     21  C   UNL     1       0.790  -2.057   0.055  0.00  0.00    +0.125 A 
ATOM     22  O   UNL     1       1.164  -0.767   0.068  0.00  0.00    -0.463 OA
ENDBRANCH  15  21
ENDBRANCH   1  15
TORSDOF 4
