REMARK  Name = ZINC63220635
REMARK  4 active torsions:
REMARK  status: ('A' for Active; 'I' for Inactive)
REMARK    1  A    between atoms: C_1  and  C_2
REMARK    2  A    between atoms: C_2  and  N_9
REMARK    3  A    between atoms: C_12  and  C_16
REMARK    4  A    between atoms: C_16  and  C_17
REMARK                            x       y       z     vdW  Elec       q    Type
REMARK                         _______ _______ _______ _____ _____    ______ ____
ROOT
ATOM      1  N   UNL     1      -1.378  -0.491   0.059  0.00  0.00    -0.319 N 
ATOM      2  C   UNL     1      -2.272  -0.141  -0.927  0.00  0.00    +0.129 C 
ATOM      3  N   UNL     1      -3.525  -0.486  -1.014  0.00  0.00    -0.364 N 
ATOM      4  C   UNL     1      -4.361  -0.020  -2.105  0.00  0.00    +0.095 C 
ATOM      5  C   UNL     1      -3.499   0.490  -3.292  0.00  0.00    +0.102 C 
ATOM      6  S   UNL     1      -1.962   0.889  -2.352  0.00  0.00    -0.091 S 
ATOM      7  H   UNL     1      -1.662  -1.060   0.791  0.00  0.00    +0.148 HD
ATOM      8  H   UNL     1      -3.907  -1.067  -0.337  0.00  0.00    +0.162 HD
ENDROOT
BRANCH   1  10
ATOM      9  C   UNL     1      -0.019   1.526   0.010  0.00  0.00    +0.033 C 
ATOM     10  C   UNL     1       0.002  -0.004   0.002  0.00  0.00    +0.052 C 
ATOM     11  C   UNL     1       0.632  -0.478  -1.307  0.00  0.00    +0.049 C 
ATOM     12  C   UNL     1       2.169  -0.637  -1.140  0.00  0.00    +0.168 C 
ATOM     13  S   UNL     1       2.220  -1.358   0.560  0.00  0.00    -0.029 S 
ATOM     14  O   UNL     1       3.389  -0.902   1.226  0.00  0.00    -0.174 OA
ATOM     15  O   UNL     1       1.952  -2.752   0.484  0.00  0.00    -0.174 OA
ATOM     16  C   UNL     1       0.751  -0.495   1.257  0.00  0.00    +0.191 C 
ENDBRANCH   1  10
BRANCH   4  17
ATOM     17  C   UNL     1      -5.246  -1.171  -2.587  0.00  0.00    +0.060 C 
BRANCH  17  18
ATOM     18  C   UNL     1      -6.224  -1.542  -1.502  0.00  0.00    -0.045 A 
ATOM     19  C   UNL     1      -5.884  -2.496  -0.562  0.00  0.00    +0.004 A 
ATOM     20  C   UNL     1      -6.781  -2.836   0.433  0.00  0.00    +0.000 A 
ATOM     21  C   UNL     1      -8.018  -2.221   0.489  0.00  0.00    +0.000 A 
ATOM     22  C   UNL     1      -8.358  -1.266  -0.451  0.00  0.00    +0.000 A 
ATOM     23  C   UNL     1      -7.459  -0.923  -1.444  0.00  0.00    +0.004 A 
ENDBRANCH  17  18
ENDBRANCH   4  17
TORSDOF 3
