REMARK  Name = ZINC52888020
REMARK  8 active torsions:
REMARK  status: ('A' for Active; 'I' for Inactive)
REMARK    1  A    between atoms: C_1  and  C_2
REMARK    2  A    between atoms: C_2  and  C_3
REMARK    3  A    between atoms: C_2  and  C_4
REMARK    4  A    between atoms: C_6  and  C_9
REMARK    5  A    between atoms: C_9  and  S_10
REMARK    6  A    between atoms: S_10  and  C_11
REMARK    7  A    between atoms: N_21  and  C_22
REMARK    8  A    between atoms: C_22  and  C_23
REMARK                            x       y       z     vdW  Elec       q    Type
REMARK                         _______ _______ _______ _____ _____    ______ ____
ROOT
ATOM      1  C   UNL     1      -5.184  -4.989  -1.882  0.00  0.00    +0.173 A 
ATOM      2  N   UNL     1      -5.868  -4.297  -2.759  0.00  0.00    -0.223 NA
ATOM      3  C   UNL     1      -6.768  -4.883  -3.575  0.00  0.00    +0.079 A 
ATOM      4  C   UNL     1      -7.498  -4.145  -4.511  0.00  0.00    +0.028 A 
ATOM      5  C   UNL     1      -8.399  -4.780  -5.319  0.00  0.00    +0.002 A 
ATOM      6  C   UNL     1      -8.603  -6.150  -5.223  0.00  0.00    +0.001 A 
ATOM      7  C   UNL     1      -7.904  -6.899  -4.317  0.00  0.00    +0.015 A 
ATOM      8  C   UNL     1      -6.978  -6.278  -3.481  0.00  0.00    +0.065 A 
ATOM      9  C   UNL     1      -6.198  -7.032  -2.490  0.00  0.00    +0.263 A 
ATOM     10  O   UNL     1      -6.334  -8.235  -2.362  0.00  0.00    -0.267 OA
ATOM     11  N   UNL     1      -5.320  -6.339  -1.728  0.00  0.00    -0.280 N 
ENDROOT
BRANCH   1  12
ATOM     12  S   UNL     1      -4.030  -4.139  -0.857  0.00  0.00    -0.080 S 
BRANCH  12  13
ATOM     13  C   UNL     1      -4.169  -2.408  -1.382  0.00  0.00    +0.157 C 
BRANCH  13  16
ATOM     14  C   UNL     1      -1.412  -0.526   0.013  0.00  0.00    +0.230 A 
ATOM     15  N   UNL     1      -1.953  -1.285  -0.899  0.00  0.00    -0.195 NA
ATOM     16  C   UNL     1      -3.221  -1.560  -0.574  0.00  0.00    +0.182 A 
ATOM     17  N   UNL     1      -3.503  -0.976   0.555  0.00  0.00    -0.060 NA
ATOM     18  O   UNL     1      -2.326  -0.294   0.963  0.00  0.00    -0.338 OA
BRANCH  14  20
ATOM     19  C   UNL     1      -0.019   1.526   0.010  0.00  0.00    +0.017 C 
ATOM     20  C   UNL     1       0.002  -0.004   0.002  0.00  0.00    +0.072 C 
ATOM     21  C   UNL     1       0.742  -0.511   1.242  0.00  0.00    +0.017 C 
ENDBRANCH  14  20
ENDBRANCH  13  16
ENDBRANCH  12  13
ENDBRANCH   1  12
BRANCH  11  22
ATOM     22  C   UNL     1      -4.512  -7.042  -0.728  0.00  0.00    +0.201 C 
BRANCH  22  23
ATOM     23  C   UNL     1      -5.252  -7.071   0.585  0.00  0.00    +0.125 A 
ATOM     24  C   UNL     1      -6.103  -8.032   0.988  0.00  0.00    +0.046 A 
ATOM     25  C   UNL     1      -6.564  -7.659   2.271  0.00  0.00    +0.041 A 
ATOM     26  C   UNL     1      -5.967  -6.493   2.576  0.00  0.00    +0.195 A 
ATOM     27  O   UNL     1      -5.169  -6.144   1.554  0.00  0.00    -0.466 OA
ENDBRANCH  22  23
ENDBRANCH  11  22
TORSDOF 6
