REMARK  Name = ZINC52918850
REMARK  4 active torsions:
REMARK  status: ('A' for Active; 'I' for Inactive)
REMARK    1  A    between atoms: C_4  and  N_21
REMARK    2  A    between atoms: C_5  and  C_7
REMARK    3  A    between atoms: C_7  and  C_8
REMARK    4  A    between atoms: C_8  and  N_9
REMARK                            x       y       z     vdW  Elec       q    Type
REMARK                         _______ _______ _______ _____ _____    ______ ____
ROOT
ATOM      1  N   UNL     1       1.391  -4.168   1.403  0.00  0.00    -0.192 N 
ATOM      2  C   UNL     1       0.233  -4.905   1.404  0.00  0.00    +0.206 C 
ATOM      3  N   UNL     1       0.128  -6.077   0.885  0.00  0.00    -0.237 NA
ATOM      4  C   UNL     1       1.102  -6.790   0.253  0.00  0.00    +0.092 A 
ATOM      5  C   UNL     1       0.775  -7.895  -0.536  0.00  0.00    +0.030 A 
ATOM      6  C   UNL     1       1.772  -8.607  -1.170  0.00  0.00    +0.002 A 
ATOM      7  C   UNL     1       3.098  -8.238  -1.034  0.00  0.00    +0.002 A 
ATOM      8  C   UNL     1       3.436  -7.143  -0.253  0.00  0.00    +0.031 A 
ATOM      9  C   UNL     1       2.450  -6.431   0.380  0.00  0.00    +0.134 A 
ATOM     10  S   UNL     1       2.824  -5.028   1.384  0.00  0.00    +0.077 S 
ATOM     11  O   UNL     1       3.774  -4.245   0.674  0.00  0.00    -0.150 OA
ATOM     12  O   UNL     1       3.045  -5.506   2.704  0.00  0.00    -0.150 OA
ENDROOT
BRANCH   1  13
ATOM     13  C   UNL     1       1.372  -2.703   1.411  0.00  0.00    +0.137 C 
BRANCH  13  14
ATOM     14  C   UNL     1       1.226  -2.187  -0.022  0.00  0.00    +0.058 C 
BRANCH  14  19
ATOM     15  C   UNL     1      -0.017   1.378   0.010  0.00  0.00    +0.000 A 
ATOM     16  C   UNL     1       1.170   2.089   0.002  0.00  0.00    +0.002 A 
ATOM     17  C   UNL     1       2.377   1.420  -0.013  0.00  0.00    +0.023 A 
ATOM     18  C   UNL     1       2.400   0.031  -0.021  0.00  0.00    +0.028 A 
ATOM     19  C   UNL     1       1.207  -0.680  -0.013  0.00  0.00    -0.025 A 
ATOM     20  C   UNL     1       0.002  -0.004   0.002  0.00  0.00    +0.005 A 
BRANCH  18  21
ATOM     21  N   UNL     1       3.620  -0.649  -0.036  0.00  0.00    -0.358 N 
ATOM     22  H   UNL     1       4.452  -0.152  -0.042  0.00  0.00    +0.142 HD
ATOM     23  H   UNL     1       3.634  -1.619  -0.042  0.00  0.00    +0.142 HD
ENDBRANCH  18  21
ENDBRANCH  14  19
ENDBRANCH  13  14
ENDBRANCH   1  13
TORSDOF 4
