REMARK  Name = ZINC15428416
REMARK  7 active torsions:
REMARK  status: ('A' for Active; 'I' for Inactive)
REMARK    1  A    between atoms: C_1  and  C_2
REMARK    2  A    between atoms: C_6  and  N_8
REMARK    3  A    between atoms: N_8  and  C_9
REMARK    4  A    between atoms: C_9  and  N_11
REMARK    5  A    between atoms: N_11  and  N_12
REMARK    6  A    between atoms: C_13  and  C_15
REMARK    7  A    between atoms: C_18  and  C_20
REMARK                            x       y       z     vdW  Elec       q    Type
REMARK                         _______ _______ _______ _____ _____    ______ ____
ROOT
ATOM      1  N   UNL     1      -0.042   1.019  -0.015  0.00  0.00    -0.229 N 
ATOM      2  C   UNL     1       1.101   1.732  -0.041  0.00  0.00    +0.295 C 
ATOM      3  O   UNL     1       1.083   2.899  -0.385  0.00  0.00    -0.265 OA
ATOM      4  H   UNL     1      -0.028   0.088   0.259  0.00  0.00    +0.173 HD
ENDROOT
BRANCH   2   5
ATOM      5  C   UNL     1       2.366   1.102   0.346  0.00  0.00    +0.191 A 
ATOM      6  C   UNL     1       3.602   1.710   0.360  0.00  0.00    +0.055 A 
ATOM      7  C   UNL     1       4.521   0.749   0.792  0.00  0.00    +0.051 A 
ATOM      8  C   UNL     1       3.821  -0.402   1.017  0.00  0.00    +0.137 A 
ATOM      9  O   UNL     1       2.525  -0.178   0.745  0.00  0.00    -0.450 OA
BRANCH   8  10
ATOM     10  C   UNL     1       4.394  -1.681   1.483  0.00  0.00    +0.037 A 
ATOM     11  C   UNL     1       3.821  -2.355   2.563  0.00  0.00    +0.033 A 
ATOM     12  C   UNL     1       4.362  -3.550   2.993  0.00  0.00    +0.042 A 
ATOM     13  C   UNL     1       5.471  -4.080   2.356  0.00  0.00    +0.021 A 
ATOM     14  C   UNL     1       6.044  -3.419   1.285  0.00  0.00    +0.022 A 
ATOM     15  C   UNL     1       5.510  -2.225   0.841  0.00  0.00    +0.052 A 
ATOM     16 CL   UNL     1       6.226  -1.400  -0.509  0.00  0.00    -0.083 Cl
ATOM     17 CL   UNL     1       3.650  -4.389   4.336  0.00  0.00    -0.084 Cl
ENDBRANCH   8  10
ENDBRANCH   2   5
BRANCH   1  18
ATOM     18  N   UNL     1      -1.251   1.620  -0.390  0.00  0.00    -0.245 N 
ATOM     19  H   UNL     1      -1.266   2.550  -0.664  0.00  0.00    +0.172 HD
BRANCH  18  20
ATOM     20  C   UNL     1      -2.394   0.905  -0.370  0.00  0.00    +0.151 C 
ATOM     21  S   UNL     1      -3.871   1.639  -0.828  0.00  0.00    -0.017 S 
BRANCH  20  22
ATOM     22  N   UNL     1      -2.373  -0.388   0.011  0.00  0.00    -0.296 N 
ATOM     23  H   UNL     1      -1.529  -0.821   0.211  0.00  0.00    +0.154 HD
BRANCH  22  29
ATOM     24  C   UNL     1      -6.740  -1.637  -1.869  0.00  0.00    +0.044 C 
ATOM     25  C   UNL     1      -5.705  -1.728  -0.778  0.00  0.00    -0.049 A 
ATOM     26  C   UNL     1      -5.937  -2.522   0.331  0.00  0.00    +0.003 A 
ATOM     27  C   UNL     1      -4.989  -2.608   1.333  0.00  0.00    +0.002 A 
ATOM     28  C   UNL     1      -3.804  -1.905   1.228  0.00  0.00    +0.023 A 
ATOM     29  C   UNL     1      -3.570  -1.104   0.119  0.00  0.00    +0.033 A 
ATOM     30  C   UNL     1      -4.525  -1.019  -0.887  0.00  0.00    +0.026 A 
ENDBRANCH  22  29
ENDBRANCH  20  22
ENDBRANCH  18  20
ENDBRANCH   1  18
TORSDOF 6
