REMARK  Name = ZINC36763933
REMARK  6 active torsions:
REMARK  status: ('A' for Active; 'I' for Inactive)
REMARK    1  A    between atoms: C_1  and  C_2
REMARK    2  A    between atoms: C_2  and  C_3
REMARK    3  A    between atoms: C_2  and  C_4
REMARK    4  A    between atoms: C_6  and  C_9
REMARK    5  A    between atoms: C_9  and  C_11
REMARK    6  A    between atoms: C_9  and  N_22
REMARK                            x       y       z     vdW  Elec       q    Type
REMARK                         _______ _______ _______ _____ _____    ______ ____
ROOT
ATOM      1  C   UNL     1      -4.169  -2.408  -1.382  0.00  0.00    +0.029 C 
ENDROOT
BRANCH   1   2
ATOM      2  C   UNL     1      -5.165  -1.520  -2.083  0.00  0.00    -0.050 A 
ATOM      3  C   UNL     1      -4.991  -1.208  -3.418  0.00  0.00    +0.052 A 
ATOM      4  C   UNL     1      -5.906  -0.391  -4.065  0.00  0.00    +0.163 A 
ATOM      5  C   UNL     1      -6.999   0.111  -3.369  0.00  0.00    +0.176 A 
ATOM      6  C   UNL     1      -7.167  -0.205  -2.029  0.00  0.00    +0.063 A 
ATOM      7  C   UNL     1      -6.253  -1.024  -1.390  0.00  0.00    +0.021 A 
ATOM      8 BR   UNL     1      -8.650   0.479  -1.075  0.00  0.00    -0.046 Br
ATOM      9  O   UNL     1      -7.913   0.908  -3.987  0.00  0.00    -0.484 OA
ATOM     10  C   UNL     1      -7.513   1.505  -5.226  0.00  0.00    +0.270 C 
ATOM     11  C   UNL     1      -6.852   0.422  -6.090  0.00  0.00    +0.270 C 
ATOM     12  O   UNL     1      -5.719  -0.089  -5.379  0.00  0.00    -0.485 OA
ENDBRANCH   1   2
BRANCH   1  15
ATOM     13  C   UNL     1      -1.412  -0.526   0.013  0.00  0.00    +0.230 A 
ATOM     14  N   UNL     1      -1.953  -1.285  -0.899  0.00  0.00    -0.197 NA
ATOM     15  C   UNL     1      -3.221  -1.560  -0.574  0.00  0.00    +0.162 A 
ATOM     16  N   UNL     1      -3.503  -0.976   0.555  0.00  0.00    -0.063 NA
ATOM     17  O   UNL     1      -2.326  -0.294   0.963  0.00  0.00    -0.338 OA
BRANCH  13  19
ATOM     18  C   UNL     1      -0.019   1.526   0.010  0.00  0.00    +0.017 C 
ATOM     19  C   UNL     1       0.002  -0.004   0.002  0.00  0.00    +0.072 C 
ATOM     20  C   UNL     1       0.742  -0.511   1.242  0.00  0.00    +0.017 C 
ENDBRANCH  13  19
ENDBRANCH   1  15
BRANCH   1  21
ATOM     21  N   UNL     1      -4.880  -3.333  -0.490  0.00  0.00    +0.387 N 
ATOM     22  H   UNL     1      -4.214  -3.928  -0.021  0.00  0.00    -0.089 HD
ATOM     23  H   UNL     1      -5.401  -2.807   0.195  0.00  0.00    -0.089 HD
ATOM     24  H   UNL     1      -5.515  -3.901  -1.032  0.00  0.00    -0.089 HD
ENDBRANCH   1  21
TORSDOF 4
