REMARK  Name = ZINC40681291
REMARK  7 active torsions:
REMARK  status: ('A' for Active; 'I' for Inactive)
REMARK    1  A    between atoms: C_1  and  C_2
REMARK    2  A    between atoms: C_4  and  C_24
REMARK    3  A    between atoms: C_6  and  O_8
REMARK    4  A    between atoms: O_8  and  C_9
REMARK    5  A    between atoms: C_10  and  N_23
REMARK    6  A    between atoms: C_11  and  S_15
REMARK    7  A    between atoms: S_15  and  C_16
REMARK                            x       y       z     vdW  Elec       q    Type
REMARK                         _______ _______ _______ _____ _____    ______ ____
ROOT
ATOM      1  C   UNL     1       0.179  -2.065   3.509  0.00  0.00    +0.246 A 
ATOM      2  C   UNL     1       0.302  -2.721   4.733  0.00  0.00    +0.120 A 
ATOM      3  C   UNL     1       0.390  -1.944   5.892  0.00  0.00    +0.129 A 
ATOM      4  N   UNL     1       0.353  -0.618   5.783  0.00  0.00    -0.227 NA
ATOM      5  C   UNL     1       0.236  -0.039   4.605  0.00  0.00    +0.226 A 
ATOM      6  N   UNL     1       0.156  -0.736   3.489  0.00  0.00    -0.199 NA
ENDROOT
BRANCH   2   7
ATOM      7  N   UNL     1       0.336  -4.122   4.800  0.00  0.00    -0.352 N 
ATOM      8  H   UNL     1       0.274  -4.648   3.987  0.00  0.00    +0.143 HD
ATOM      9  H   UNL     1       0.422  -4.564   5.659  0.00  0.00    +0.143 HD
ENDBRANCH   2   7
BRANCH   1  10
ATOM     10  O   UNL     1       0.091  -2.772   2.355  0.00  0.00    -0.436 OA
BRANCH  10  16
ATOM     11  C   UNL     1       2.525  -0.288  -1.069  0.00  0.00    +0.044 C 
ATOM     12  C   UNL     1       1.245  -0.858  -0.516  0.00  0.00    -0.047 A 
ATOM     13  C   UNL     1       0.057  -0.680  -1.200  0.00  0.00    +0.007 A 
ATOM     14  C   UNL     1      -1.120  -1.203  -0.696  0.00  0.00    -0.047 A 
ATOM     15  C   UNL     1      -1.111  -1.904   0.495  0.00  0.00    +0.049 A 
ATOM     16  C   UNL     1       0.080  -2.084   1.183  0.00  0.00    +0.131 A 
ATOM     17  C   UNL     1       1.260  -1.563   0.672  0.00  0.00    +0.049 A 
ATOM     18  C   UNL     1      -2.413  -1.007  -1.444  0.00  0.00    +0.044 C 
ENDBRANCH  10  16
ENDBRANCH   1  10
BRANCH   3  19
ATOM     19  S   UNL     1       0.546  -2.708   7.472  0.00  0.00    -0.068 S 
BRANCH  19  20
ATOM     20  C   UNL     1       0.485  -1.360   8.605  0.00  0.00    +0.014 A 
ATOM     21  C   UNL     1      -0.741  -0.878   9.047  0.00  0.00    +0.016 A 
ATOM     22  C   UNL     1      -0.785   0.178   9.936  0.00  0.00    +0.021 A 
ATOM     23  C   UNL     1       0.389   0.756  10.386  0.00  0.00    +0.041 A 
ATOM     24  C   UNL     1       1.611   0.278   9.947  0.00  0.00    +0.021 A 
ATOM     25  C   UNL     1       1.662  -0.782   9.063  0.00  0.00    +0.016 A 
ATOM     26 CL   UNL     1       0.329   2.084  11.502  0.00  0.00    -0.084 Cl
ENDBRANCH  19  20
ENDBRANCH   3  19
TORSDOF 5
