REMARK  Name = ZINC21731009
REMARK  5 active torsions:
REMARK  status: ('A' for Active; 'I' for Inactive)
REMARK    1  A    between atoms: C_4  and  C_7
REMARK    2  A    between atoms: C_14  and  S_18
REMARK    3  A    between atoms: S_18  and  C_19
REMARK    4  A    between atoms: C_19  and  C_20
REMARK    5  A    between atoms: C_22  and  C_25
REMARK                            x       y       z     vdW  Elec       q    Type
REMARK                         _______ _______ _______ _____ _____    ______ ____
ROOT
ATOM      1  C   UNL     1       2.312  -2.943  -0.035  0.00  0.00    +0.026 A 
ATOM      2  C   UNL     1       1.739  -4.178  -0.036  0.00  0.00    +0.093 A 
ATOM      3  N   UNL     1       0.388  -4.054  -0.023  0.00  0.00    -0.355 N 
ATOM      4  H   UNL     1      -0.248  -4.952  -0.022  0.00  0.00    +0.166 HD
ATOM      5  C   UNL     1       0.036  -2.720  -0.013  0.00  0.00    +0.133 A 
ATOM      6  C   UNL     1       1.218  -1.971  -0.020  0.00  0.00    +0.104 A 
ATOM      7  N   UNL     1       1.158  -0.628  -0.018  0.00  0.00    -0.220 NA
ATOM      8  C   UNL     1       0.002  -0.004   0.002  0.00  0.00    +0.193 A 
ATOM      9  N   UNL     1      -1.181  -0.685   0.010  0.00  0.00    -0.182 NA
ATOM     10  C   UNL     1      -1.194  -2.036   0.003  0.00  0.00    +0.298 A 
ATOM     11  O   UNL     1      -2.249  -2.649   0.010  0.00  0.00    -0.263 OA
ENDROOT
BRANCH   1  15
ATOM     12  C   UNL     1       6.474  -2.078  -0.071  0.00  0.00    +0.000 A 
ATOM     13  C   UNL     1       5.966  -2.977   0.848  0.00  0.00    +0.001 A 
ATOM     14  C   UNL     1       4.615  -3.262   0.865  0.00  0.00    +0.008 A 
ATOM     15  C   UNL     1       3.764  -2.641  -0.048  0.00  0.00    -0.014 A 
ATOM     16  C   UNL     1       4.283  -1.740  -0.976  0.00  0.00    +0.008 A 
ATOM     17  C   UNL     1       5.634  -1.458  -0.979  0.00  0.00    +0.001 A 
ENDBRANCH   1  15
BRANCH   8  18
ATOM     18  S   UNL     1      -0.022   1.758   0.012  0.00  0.00    -0.076 S 
BRANCH  18  19
ATOM     19  C   UNL     1       1.756   2.096  -0.004  0.00  0.00    +0.176 C 
BRANCH  19  20
ATOM     20  C   UNL     1       1.984   3.586   0.002  0.00  0.00    +0.238 A 
ATOM     21  N   UNL     1       2.112   4.349   1.059  0.00  0.00    -0.191 NA
ATOM     22  C   UNL     1       2.299   5.601   0.582  0.00  0.00    +0.202 A 
ATOM     23  N   UNL     1       2.274   5.525  -0.723  0.00  0.00    -0.056 NA
ATOM     24  O   UNL     1       2.099   4.376  -1.070  0.00  0.00    -0.337 OA
BRANCH  22  25
ATOM     25  C   UNL     1       2.496   6.831   1.390  0.00  0.00    +0.023 A 
ATOM     26  C   UNL     1       2.678   8.060   0.758  0.00  0.00    +0.012 A 
ATOM     27  C   UNL     1       2.860   9.200   1.513  0.00  0.00    +0.002 A 
ATOM     28  C   UNL     1       2.863   9.126   2.894  0.00  0.00    +0.015 A 
ATOM     29  C   UNL     1       2.682   7.908   3.527  0.00  0.00    +0.019 A 
ATOM     30  C   UNL     1       2.494   6.761   2.781  0.00  0.00    +0.027 A 
ATOM     31 BR   UNL     1       2.686   7.816   5.416  0.00  0.00    -0.050 Br
ENDBRANCH  22  25
ENDBRANCH  19  20
ENDBRANCH  18  19
ENDBRANCH   8  18
TORSDOF 5
