REMARK  Name = ZINC36667650
REMARK  6 active torsions:
REMARK  status: ('A' for Active; 'I' for Inactive)
REMARK    1  A    between atoms: C_1  and  C_2
REMARK    2  A    between atoms: C_3  and  C_7
REMARK    3  A    between atoms: N_9  and  N_10
REMARK    4  A    between atoms: C_11  and  C_13
REMARK    5  A    between atoms: C_14  and  C_15
REMARK    6  A    between atoms: C_17  and  C_22
REMARK                            x       y       z     vdW  Elec       q    Type
REMARK                         _______ _______ _______ _____ _____    ______ ____
ROOT
ATOM      1  N   UNL     1      -4.827  -0.946   0.021  0.00  0.00    -0.231 N 
ATOM      2  C   UNL     1      -5.800  -1.878   0.020  0.00  0.00    +0.253 C 
ATOM      3  O   UNL     1      -5.510  -3.060   0.011  0.00  0.00    -0.269 OA
ATOM      4  H   UNL     1      -5.058  -0.004   0.028  0.00  0.00    +0.173 HD
ENDROOT
BRANCH   1   7
ATOM      5  C   UNL     1      -2.508  -0.405   0.013  0.00  0.00    +0.263 C 
ATOM      6  O   UNL     1      -2.798   0.776   0.021  0.00  0.00    -0.269 OA
ATOM      7  N   UNL     1      -3.482  -1.337   0.012  0.00  0.00    -0.230 N 
ATOM      8  H   UNL     1      -3.251  -2.280   0.005  0.00  0.00    +0.173 HD
BRANCH   5  11
ATOM      9  C   UNL     1      -0.018   1.503   0.010  0.00  0.00    +0.087 C 
ATOM     10  C   UNL     1       0.002  -0.004   0.002  0.00  0.00    +0.114 A 
ATOM     11  C   UNL     1      -1.093  -0.817   0.003  0.00  0.00    +0.079 A 
ATOM     12  C   UNL     1      -0.567  -2.190  -0.008  0.00  0.00    +0.054 A 
ATOM     13  C   UNL     1       0.769  -2.073  -0.014  0.00  0.00    +0.196 A 
ATOM     14  O   UNL     1       1.097  -0.771  -0.013  0.00  0.00    -0.467 OA
ENDBRANCH   5  11
ENDBRANCH   1   7
BRANCH   2  15
ATOM     15  C   UNL     1      -7.205  -1.469   0.030  0.00  0.00    +0.069 C 
ATOM     16  C   UNL     1      -8.179  -2.402   0.029  0.00  0.00    +0.014 C 
BRANCH  16  17
ATOM     17  C   UNL     1      -9.592  -1.991   0.039  0.00  0.00    -0.006 A 
ATOM     18  C   UNL     1      -9.929  -0.633   0.044  0.00  0.00    +0.021 A 
ATOM     19  C   UNL     1     -11.255  -0.256   0.053  0.00  0.00    +0.055 A 
ATOM     20  C   UNL     1     -12.253  -1.216   0.058  0.00  0.00    +0.014 A 
ATOM     21  C   UNL     1     -11.929  -2.561   0.054  0.00  0.00    +0.021 A 
ATOM     22  C   UNL     1     -10.606  -2.956   0.039  0.00  0.00    +0.048 A 
ATOM     23 CL   UNL     1     -10.201  -4.644   0.026  0.00  0.00    -0.083 Cl
BRANCH  19  24
ATOM     24  C   UNL     1     -11.620   1.206   0.058  0.00  0.00    +0.417 C 
ATOM     25  F   UNL     1     -11.741   1.661  -1.259  0.00  0.00    -0.166 F 
ATOM     26  F   UNL     1     -12.837   1.381   0.726  0.00  0.00    -0.166 F 
ATOM     27  F   UNL     1     -10.620   1.934   0.713  0.00  0.00    -0.166 F 
ENDBRANCH  19  24
ENDBRANCH  16  17
ENDBRANCH   2  15
TORSDOF 5
