REMARK  Name = ZINC13779182
REMARK  4 active torsions:
REMARK  status: ('A' for Active; 'I' for Inactive)
REMARK    1  A    between atoms: C_1  and  C_2
REMARK    2  A    between atoms: C_7  and  C_8
REMARK    3  A    between atoms: N_16  and  C_19
REMARK    4  A    between atoms: N_30  and  C_31
REMARK                            x       y       z     vdW  Elec       q    Type
REMARK                         _______ _______ _______ _____ _____    ______ ____
ROOT
ATOM      1  C   UNL     1       0.044  -0.022   2.519  0.00  0.00    +0.157 C 
ATOM      2  C   UNL     1      -1.398   0.332   2.950  0.00  0.00    +0.145 C 
ATOM      3  C   UNL     1      -1.759  -0.789   3.961  0.00  0.00    +0.249 C 
ATOM      4  C   UNL     1      -2.894  -1.520   3.277  0.00  0.00    +0.259 C 
ATOM      5  O   UNL     1      -3.498  -2.465   3.739  0.00  0.00    -0.272 OA
ATOM      6  N   UNL     1      -3.129  -0.961   2.085  0.00  0.00    -0.208 N 
ATOM      7  C   UNL     1      -2.339   0.100   1.790  0.00  0.00    +0.235 C 
ATOM      8  O   UNL     1      -2.370   0.756   0.771  0.00  0.00    -0.274 OA
ATOM      9  O   UNL     1      -0.603  -1.645   4.019  0.00  0.00    -0.257 OA
ATOM     10  N   UNL     1       0.528  -0.860   3.642  0.00  0.00    -0.244 N 
ENDROOT
BRANCH   6  11
ATOM     11  C   UNL     1      -4.119  -1.429   1.210  0.00  0.00    +0.045 A 
ATOM     12  C   UNL     1      -5.234  -0.629   0.937  0.00  0.00    +0.024 A 
ATOM     13  C   UNL     1      -6.210  -1.056   0.092  0.00  0.00    +0.010 A 
ATOM     14  C   UNL     1      -6.102  -2.318  -0.518  0.00  0.00    -0.018 A 
ATOM     15  C   UNL     1      -7.092  -2.789  -1.396  0.00  0.00    +0.008 A 
ATOM     16  C   UNL     1      -6.955  -4.016  -1.970  0.00  0.00    +0.001 A 
ATOM     17  C   UNL     1      -5.846  -4.815  -1.700  0.00  0.00    +0.001 A 
ATOM     18  C   UNL     1      -4.867  -4.392  -0.854  0.00  0.00    +0.008 A 
ATOM     19  C   UNL     1      -4.973  -3.130  -0.243  0.00  0.00    -0.016 A 
ATOM     20  C   UNL     1      -3.979  -2.658   0.630  0.00  0.00    +0.032 A 
ENDBRANCH   6  11
BRANCH   1  27
ATOM     21  C   UNL     1       0.069   1.366  -0.015  0.00  0.00    +0.044 C 
ATOM     22  C   UNL     1       0.052  -0.141   0.019  0.00  0.00    -0.045 A 
ATOM     23  C   UNL     1       0.054  -0.859  -1.163  0.00  0.00    +0.004 A 
ATOM     24  C   UNL     1       0.038  -2.240  -1.131  0.00  0.00    +0.000 A 
ATOM     25  C   UNL     1       0.021  -2.904   0.081  0.00  0.00    +0.000 A 
ATOM     26  C   UNL     1       0.020  -2.186   1.262  0.00  0.00    +0.006 A 
ATOM     27  C   UNL     1       0.040  -0.804   1.231  0.00  0.00    -0.019 A 
ENDBRANCH   1  27
BRANCH  10  28
ATOM     28  C   UNL     1       1.803  -0.870   4.213  0.00  0.00    +0.065 A 
ATOM     29  C   UNL     1       2.789  -0.019   3.731  0.00  0.00    +0.028 A 
ATOM     30  C   UNL     1       4.048  -0.031   4.298  0.00  0.00    +0.002 A 
ATOM     31  C   UNL     1       4.328  -0.890   5.345  0.00  0.00    +0.000 A 
ATOM     32  C   UNL     1       3.349  -1.739   5.828  0.00  0.00    +0.002 A 
ATOM     33  C   UNL     1       2.086  -1.728   5.269  0.00  0.00    +0.028 A 
ENDBRANCH  10  28
TORSDOF 3
