REMARK  Name = ZINC04638569
REMARK  6 active torsions:
REMARK  status: ('A' for Active; 'I' for Inactive)
REMARK    1  A    between atoms: C_1  and  C_2
REMARK    2  A    between atoms: C_8  and  C_23
REMARK    3  A    between atoms: C_8  and  C_25
REMARK    4  A    between atoms: C_9  and  N_22
REMARK    5  A    between atoms: C_10  and  C_20
REMARK    6  A    between atoms: C_11  and  C_13
REMARK                            x       y       z     vdW  Elec       q    Type
REMARK                         _______ _______ _______ _____ _____    ______ ____
ROOT
ATOM      1  C   UNL     1       2.141   3.400  -1.183  0.00  0.00    +0.017 C 
ATOM      2  C   UNL     1       1.335   2.992   0.051  0.00  0.00    +0.003 C 
ATOM      3  C   UNL     1      -0.082   3.510  -0.119  0.00  0.00    +0.012 C 
ATOM      4  C   UNL     1      -1.067   2.688   0.711  0.00  0.00    +0.005 C 
ATOM      5  C   UNL     1      -1.052   1.245   0.186  0.00  0.00    +0.027 C 
ATOM      6  C   UNL     1       0.356   0.723   0.260  0.00  0.00    -0.024 C 
ATOM      7  C   UNL     1       1.397   1.496   0.197  0.00  0.00    -0.028 C 
ATOM      8  C   UNL     1       2.783   0.879   0.277  0.00  0.00    +0.202 C 
ATOM      9  C   UNL     1       3.633   1.730   1.179  0.00  0.00    +0.054 C 
ATOM     10  C   UNL     1       3.278   2.940   1.607  0.00  0.00    +0.057 C 
ATOM     11  C   UNL     1       1.981   3.620   1.290  0.00  0.00    +0.071 C 
ENDROOT
BRANCH  11  12
ATOM     12  C   UNL     1       1.044   3.478   2.462  0.00  0.00    -0.038 A 
ATOM     13  C   UNL     1       0.317   4.569   2.902  0.00  0.00    +0.006 A 
ATOM     14  C   UNL     1      -0.546   4.437   3.973  0.00  0.00    +0.020 A 
ATOM     15  C   UNL     1      -0.675   3.217   4.612  0.00  0.00    +0.041 A 
ATOM     16  C   UNL     1       0.057   2.127   4.174  0.00  0.00    +0.020 A 
ATOM     17  C   UNL     1       0.916   2.258   3.099  0.00  0.00    +0.006 A 
ATOM     18 CL   UNL     1      -1.754   3.053   5.962  0.00  0.00    -0.084 Cl
ENDBRANCH  11  12
BRANCH   9  19
ATOM     19  N   UNL     1       4.844   1.232   1.583  0.00  0.00    -0.358 N 
ATOM     20  H   UNL     1       5.492   1.829   2.243  0.00  0.00    +0.142 HD
ATOM     21  H   UNL     1       5.169   0.236   1.247  0.00  0.00    +0.142 HD
ENDBRANCH   9  19
BRANCH  10  22
ATOM     22  C   UNL     1       4.208   3.646   2.436  0.00  0.00    +0.097 C 
ATOM     23  N   UNL     1       4.946   4.206   3.093  0.00  0.00    -0.191 NA
ENDBRANCH  10  22
BRANCH   8  24
ATOM     24  C   UNL     1       2.687  -0.482   0.828  0.00  0.00    +0.095 C 
ATOM     25  N   UNL     1       2.613  -1.533   1.253  0.00  0.00    -0.194 NA
ENDBRANCH   8  24
BRANCH   8  26
ATOM     26  C   UNL     1       3.379   0.828  -1.068  0.00  0.00    +0.095 C 
ATOM     27  N   UNL     1       3.839   0.788  -2.106  0.00  0.00    -0.194 NA
ENDBRANCH   8  26
TORSDOF 5
