REMARK  Name = ZINC35300171
REMARK  9 active torsions:
REMARK  status: ('A' for Active; 'I' for Inactive)
REMARK    1  A    between atoms: C_1  and  C_2
REMARK    2  A    between atoms: C_7  and  N_30
REMARK    3  A    between atoms: C_8  and  C_13
REMARK    4  A    between atoms: N_17  and  C_21
REMARK    5  A    between atoms: C_21  and  C_22
REMARK    6  A    between atoms: C_25  and  O_28
REMARK    7  A    between atoms: O_28  and  C_29
REMARK    8  A    between atoms: N_30  and  C_31
REMARK    9  A    between atoms: C_31  and  C_32
REMARK                            x       y       z     vdW  Elec       q    Type
REMARK                         _______ _______ _______ _____ _____    ______ ____
ROOT
ATOM      1  C   UNL     1       0.730   1.466   0.001  0.00  0.00    +0.045 C 
ATOM      2  C   UNL     1       0.487  -0.022  -0.000  0.00  0.00    -0.034 A 
ATOM      3  C   UNL     1       0.248  -0.691  -1.208  0.00  0.00    +0.008 A 
ATOM      4  C   UNL     1       0.030  -2.036  -1.200  0.00  0.00    +0.047 A 
ATOM      5  C   UNL     1       0.047  -2.734   0.020  0.00  0.00    +0.142 A 
ATOM      6  N   UNL     1      -0.168  -4.050   0.018  0.00  0.00    -0.214 NA
ATOM      7  C   UNL     1      -0.163  -4.757   1.139  0.00  0.00    +0.134 A 
ATOM      8  C   UNL     1       0.075  -4.107   2.373  0.00  0.00    +0.081 A 
ATOM      9  C   UNL     1       0.302  -2.710   2.363  0.00  0.00    +0.267 A 
ATOM     10  O   UNL     1       0.511  -2.109   3.403  0.00  0.00    -0.267 OA
ATOM     11  N   UNL     1       0.283  -2.054   1.183  0.00  0.00    -0.267 N 
ATOM     12  C   UNL     1       0.505  -0.709   1.164  0.00  0.00    +0.099 A 
ENDROOT
BRANCH   8  13
ATOM     13  C   UNL     1       0.086  -4.835   3.586  0.00  0.00    +0.037 C 
ATOM     14  C   UNL     1      -0.881  -4.614   4.523  0.00  0.00    +0.077 C 
ATOM     15  C   UNL     1      -2.042  -3.792   4.450  0.00  0.00    +0.259 C 
ATOM     16  O   UNL     1      -2.295  -3.153   3.444  0.00  0.00    -0.269 OA
ATOM     17  N   UNL     1      -2.836  -3.742   5.505  0.00  0.00    -0.251 N 
ATOM     18  C   UNL     1      -2.555  -4.451   6.621  0.00  0.00    +0.121 C 
ATOM     19  S   UNL     1      -3.434  -4.537   8.088  0.00  0.00    -0.027 S 
ATOM     20  S   UNL     1      -1.039  -5.283   6.173  0.00  0.00    -0.061 S 
BRANCH  17  21
ATOM     21  C   UNL     1      -4.039  -2.906   5.464  0.00  0.00    +0.150 C 
BRANCH  21  22
ATOM     22  C   UNL     1      -5.196  -3.716   4.940  0.00  0.00    -0.029 A 
ATOM     23  C   UNL     1      -5.452  -3.756   3.582  0.00  0.00    +0.009 A 
ATOM     24  C   UNL     1      -6.513  -4.498   3.099  0.00  0.00    +0.046 A 
ATOM     25  C   UNL     1      -7.322  -5.203   3.978  0.00  0.00    +0.120 A 
ATOM     26  C   UNL     1      -7.063  -5.162   5.341  0.00  0.00    +0.046 A 
ATOM     27  C   UNL     1      -5.998  -4.423   5.818  0.00  0.00    +0.009 A 
BRANCH  25  28
ATOM     28  O   UNL     1      -8.366  -5.933   3.506  0.00  0.00    -0.495 OA
ATOM     29  C   UNL     1      -9.156  -6.633   4.469  0.00  0.00    +0.277 C 
ENDBRANCH  25  28
ENDBRANCH  21  22
ENDBRANCH  17  21
ENDBRANCH   8  13
BRANCH   7  30
ATOM     30  N   UNL     1      -0.388  -6.116   1.103  0.00  0.00    -0.321 N 
ATOM     31  H   UNL     1      -0.384  -6.630   1.925  0.00  0.00    +0.148 HD
BRANCH  30  32
ATOM     32  C   UNL     1      -0.635  -6.784  -0.178  0.00  0.00    +0.177 C 
BRANCH  32  33
ATOM     33  C   UNL     1      -0.850  -8.257   0.057  0.00  0.00    +0.122 A 
ATOM     34  C   UNL     1      -2.034  -8.852   0.290  0.00  0.00    +0.046 A 
ATOM     35  C   UNL     1      -1.774 -10.232   0.452  0.00  0.00    +0.041 A 
ATOM     36  C   UNL     1      -0.447 -10.398   0.309  0.00  0.00    +0.195 A 
ATOM     37  O   UNL     1       0.107  -9.199   0.065  0.00  0.00    -0.466 OA
ENDBRANCH  32  33
ENDBRANCH  30  32
ENDBRANCH   7  30
TORSDOF 7
