REMARK  Name = ZINC61329824
REMARK  3 active torsions:
REMARK  status: ('A' for Active; 'I' for Inactive)
REMARK    1  A    between atoms: C_5  and  N_7
REMARK    2  A    between atoms: N_7  and  C_8
REMARK    3  A    between atoms: C_8  and  C_17
REMARK                            x       y       z     vdW  Elec       q    Type
REMARK                         _______ _______ _______ _____ _____    ______ ____
ROOT
ATOM      1  C   UNL     1      -0.070  -2.743  -0.062  0.00  0.00    +0.135 C 
ATOM      2  C   UNL     1       0.035  -4.265   0.040  0.00  0.00    +0.040 C 
ATOM      3  C   UNL     1       0.594  -4.662   1.409  0.00  0.00    +0.008 C 
ATOM      4  C   UNL     1      -0.469  -4.370   2.479  0.00  0.00    +0.043 C 
ATOM      5  C   UNL     1      -1.003  -2.994   2.248  0.00  0.00    -0.005 A 
ATOM      6  C   UNL     1      -0.855  -2.222   1.138  0.00  0.00    -0.005 A 
ATOM      7  C   UNL     1      -1.451  -0.962   1.171  0.00  0.00    +0.014 A 
ATOM      8  C   UNL     1      -2.135  -0.564   2.268  0.00  0.00    +0.046 A 
ATOM      9  S   UNL     1      -1.968  -1.984   3.340  0.00  0.00    -0.101 S 
ENDROOT
BRANCH   1  10
ATOM     10  C   UNL     1      -0.784  -2.367  -1.335  0.00  0.00    +0.238 C 
ATOM     11  O   UNL     1      -1.557  -3.148  -1.850  0.00  0.00    -0.273 OA
ATOM     12  N   UNL     1      -0.565  -1.164  -1.901  0.00  0.00    -0.327 N 
ATOM     13  H   UNL     1      -0.001  -0.513  -1.454  0.00  0.00    +0.145 HD
ATOM     14  H   UNL     1      -0.970  -0.949  -2.756  0.00  0.00    +0.145 HD
ENDBRANCH   1  10
BRANCH   1  15
ATOM     15  N   UNL     1       1.273  -2.158  -0.062  0.00  0.00    -0.326 N 
ATOM     16  H   UNL     1       1.558  -1.599   0.677  0.00  0.00    +0.147 HD
BRANCH  15  21
ATOM     17  C   UNL     1       2.606  -3.465  -3.228  0.00  0.00    +0.002 A 
ATOM     18  C   UNL     1       3.866  -2.893  -3.237  0.00  0.00    +0.001 A 
ATOM     19  C   UNL     1       4.267  -2.079  -2.195  0.00  0.00    +0.017 A 
ATOM     20  C   UNL     1       3.409  -1.832  -1.140  0.00  0.00    +0.039 A 
ATOM     21  C   UNL     1       2.143  -2.404  -1.128  0.00  0.00    +0.042 A 
ATOM     22  C   UNL     1       1.744  -3.223  -2.177  0.00  0.00    +0.024 A 
ATOM     23 BR   UNL     1       3.958  -0.718   0.286  0.00  0.00    -0.048 Br
ENDBRANCH  15  21
ENDBRANCH   1  15
TORSDOF 3
