REMARK  Name = ZINC42866038
REMARK  3 active torsions:
REMARK  status: ('A' for Active; 'I' for Inactive)
REMARK    1  A    between atoms: C_1  and  C_2
REMARK    2  A    between atoms: C_8  and  C_10
REMARK    3  A    between atoms: C_10  and  N_11
REMARK                            x       y       z     vdW  Elec       q    Type
REMARK                         _______ _______ _______ _____ _____    ______ ____
ROOT
ATOM      1  N   UNL     1       0.799  -0.401   3.684  0.00  0.00    -0.288 N 
ATOM      2  C   UNL     1       0.555  -1.587   4.269  0.00  0.00    +0.263 A 
ATOM      3  O   UNL     1      -0.297  -2.332   3.821  0.00  0.00    -0.267 OA
ATOM      4  C   UNL     1       1.335  -1.977   5.464  0.00  0.00    +0.070 A 
ATOM      5  C   UNL     1       1.253  -3.193   6.260  0.00  0.00    +0.023 A 
ATOM      6  C   UNL     1       2.092  -3.284   7.304  0.00  0.00    +0.048 A 
ATOM      7  S   UNL     1       2.997  -1.753   7.238  0.00  0.00    -0.079 S 
ATOM      8  C   UNL     1       2.287  -1.054   5.898  0.00  0.00    +0.092 A 
ATOM      9  N   UNL     1       2.470   0.135   5.241  0.00  0.00    -0.329 N 
ATOM     10  C   UNL     1       1.736   0.438   4.153  0.00  0.00    +0.161 A 
ATOM     11  S   UNL     1       2.000   1.930   3.355  0.00  0.00    -0.013 S 
ATOM     12  H   UNL     1       3.137   0.762   5.560  0.00  0.00    +0.168 HD
ENDROOT
BRANCH   1  13
ATOM     13  C   UNL     1       0.026  -0.018   2.500  0.00  0.00    +0.131 C 
BRANCH  13  20
ATOM     14  C   UNL     1      -0.019   1.526   0.010  0.00  0.00    +0.008 C 
ATOM     15  C   UNL     1       0.002  -0.004   0.002  0.00  0.00    -0.009 C 
ATOM     16  C   UNL     1       0.718  -0.497  -1.257  0.00  0.00    +0.003 C 
ATOM     17  C   UNL     1       0.739  -2.027  -1.265  0.00  0.00    +0.000 C 
ATOM     18  C   UNL     1       1.479  -2.534  -0.026  0.00  0.00    +0.000 C 
ATOM     19  C   UNL     1       0.763  -2.041   1.233  0.00  0.00    +0.005 C 
ATOM     20  C   UNL     1       0.742  -0.511   1.242  0.00  0.00    +0.012 C 
ENDBRANCH  13  20
ENDBRANCH   1  13
TORSDOF 2
