REMARK  Name = ZINC28060660
REMARK  5 active torsions:
REMARK  status: ('A' for Active; 'I' for Inactive)
REMARK    1  A    between atoms: C_1  and  C_2
REMARK    2  A    between atoms: C_10  and  C_13
REMARK    3  A    between atoms: C_17  and  O_19
REMARK    4  A    between atoms: O_19  and  C_20
REMARK    5  A    between atoms: C_21  and  C_29
REMARK                            x       y       z     vdW  Elec       q    Type
REMARK                         _______ _______ _______ _____ _____    ______ ____
ROOT
ATOM      1  C   UNL     1       9.271   0.509   0.939  0.00  0.00    +0.044 C 
ATOM      2  C   UNL     1       8.160   1.510   1.121  0.00  0.00    -0.050 A 
ATOM      3  C   UNL     1       8.430   2.741   1.694  0.00  0.00    +0.007 A 
ATOM      4  C   UNL     1       7.420   3.672   1.866  0.00  0.00    +0.046 A 
ATOM      5  C   UNL     1       6.133   3.371   1.463  0.00  0.00    +0.131 A 
ATOM      6  C   UNL     1       5.858   2.124   0.886  0.00  0.00    +0.038 A 
ATOM      7  C   UNL     1       6.877   1.195   0.716  0.00  0.00    +0.016 A 
ATOM      8  C   UNL     1       4.465   1.831   0.474  0.00  0.00    +0.050 C 
ATOM      9  C   UNL     1       3.612   2.850   0.347  0.00  0.00    +0.026 C 
ATOM     10  C   UNL     1       4.102   4.257   0.608  0.00  0.00    +0.234 C 
ATOM     11  O   UNL     1       5.116   4.257   1.612  0.00  0.00    -0.479 OA
ATOM     12  C   UNL     1       2.173   2.653  -0.060  0.00  0.00    +0.181 C 
ATOM     13  N   UNL     1       1.820   1.242   0.013  0.00  0.00    -0.201 N 
ATOM     14  C   UNL     1       2.728   0.240   0.145  0.00  0.00    +0.240 A 
ATOM     15  N   UNL     1       2.067  -0.882   0.166  0.00  0.00    -0.092 NA
ATOM     16  N   UNL     1       0.802  -0.657   0.062  0.00  0.00    -0.021 NA
ATOM     17  N   UNL     1       0.576   0.614  -0.034  0.00  0.00    -0.042 NA
ATOM     18  N   UNL     1       4.084   0.504   0.239  0.00  0.00    -0.282 N 
ATOM     19  H   UNL     1       4.851  -0.278   0.137  0.00  0.00    +0.155 HD
ENDROOT
BRANCH  10  20
ATOM     20  C   UNL     1       4.666   4.831  -0.667  0.00  0.00    +0.000 A 
ATOM     21  C   UNL     1       3.953   5.786  -1.368  0.00  0.00    +0.008 A 
ATOM     22  C   UNL     1       4.470   6.319  -2.535  0.00  0.00    +0.004 A 
ATOM     23  C   UNL     1       5.695   5.889  -3.008  0.00  0.00    +0.045 A 
ATOM     24  C   UNL     1       6.409   4.927  -2.309  0.00  0.00    +0.120 A 
ATOM     25  C   UNL     1       5.890   4.398  -1.136  0.00  0.00    +0.053 A 
BRANCH  24  26
ATOM     26  O   UNL     1       7.614   4.503  -2.774  0.00  0.00    -0.495 OA
ATOM     27  C   UNL     1       8.085   5.091  -3.987  0.00  0.00    +0.277 C 
ENDBRANCH  24  26
ENDBRANCH  10  20
BRANCH  12  28
ATOM     28  C   UNL     1       1.982   3.143  -1.472  0.00  0.00    +0.019 A 
ATOM     29  C   UNL     1       1.167   4.123  -1.933  0.00  0.00    +0.013 A 
ATOM     30  C   UNL     1       1.158   4.408  -3.286  0.00  0.00    +0.008 A 
ATOM     31  C   UNL     1       1.958   3.691  -4.113  0.00  0.00    +0.045 A 
ATOM     32  S   UNL     1       2.764   2.578  -2.974  0.00  0.00    -0.099 S 
ENDBRANCH  12  28
TORSDOF 3
