REMARK  Name = ZINC64623204
REMARK  6 active torsions:
REMARK  status: ('A' for Active; 'I' for Inactive)
REMARK    1  A    between atoms: C_1  and  O_2
REMARK    2  A    between atoms: O_2  and  C_3
REMARK    3  A    between atoms: C_10  and  C_29
REMARK    4  A    between atoms: N_20  and  C_21
REMARK    5  A    between atoms: C_25  and  S_27
REMARK    6  A    between atoms: S_27  and  C_28
REMARK                            x       y       z     vdW  Elec       q    Type
REMARK                         _______ _______ _______ _____ _____    ______ ____
ROOT
ATOM      1  C   UNL     1      -0.690  -2.216   0.192  0.00  0.00    +0.121 A 
ATOM      2  C   UNL     1       0.301  -1.258  -0.083  0.00  0.00    +0.047 A 
ATOM      3  C   UNL     1       1.348  -1.511  -0.897  0.00  0.00    +0.029 A 
ATOM      4  C   UNL     1       1.480  -2.826  -1.529  0.00  0.00    +0.043 A 
ATOM      5  N   UNL     1       2.373  -3.313  -2.359  0.00  0.00    -0.375 N 
ATOM      6  C   UNL     1       2.053  -4.717  -2.612  0.00  0.00    +0.131 C 
ATOM      7  C   UNL     1       1.856  -4.997  -4.106  0.00  0.00    +0.134 C 
ATOM      8  N   UNL     1       1.158  -6.286  -4.235  0.00  0.00    -0.276 N 
ATOM      9  C   UNL     1      -0.167  -6.481  -3.637  0.00  0.00    +0.114 C 
ATOM     10  C   UNL     1      -0.086  -6.220  -2.122  0.00  0.00    +0.052 C 
ATOM     11  C   UNL     1       0.723  -4.959  -1.919  0.00  0.00    -0.035 C 
ATOM     12  C   UNL     1       0.431  -3.838  -1.245  0.00  0.00    +0.003 A 
ATOM     13  C   UNL     1      -0.660  -3.461  -0.339  0.00  0.00    +0.055 A 
ATOM     14  C   UNL     1       1.742  -7.297  -4.909  0.00  0.00    +0.307 C 
ATOM     15  O   UNL     1       2.861  -7.158  -5.364  0.00  0.00    -0.252 OA
ATOM     16  N   UNL     1       1.085  -8.461  -5.080  0.00  0.00    -0.269 N 
ATOM     17  H   UNL     1       0.193  -8.573  -4.714  0.00  0.00    +0.156 HD
ATOM     18  H   UNL     1       3.118  -2.824  -2.740  0.00  0.00    +0.160 HD
ENDROOT
BRANCH   7  19
ATOM     19  C   UNL     1       1.025  -3.902  -4.726  0.00  0.00    -0.025 A 
ATOM     20  C   UNL     1      -0.191  -3.558  -4.166  0.00  0.00    +0.008 A 
ATOM     21  C   UNL     1      -0.953  -2.554  -4.733  0.00  0.00    +0.038 A 
ATOM     22  C   UNL     1      -0.498  -1.893  -5.861  0.00  0.00    +0.123 A 
ATOM     23  C   UNL     1       0.721  -2.239  -6.420  0.00  0.00    +0.038 A 
ATOM     24  C   UNL     1       1.483  -3.239  -5.849  0.00  0.00    +0.008 A 
ATOM     25  F   UNL     1      -1.242  -0.911  -6.416  0.00  0.00    -0.205 F 
ENDBRANCH   7  19
BRANCH  16  26
ATOM     26  C   UNL     1       1.689  -9.509  -5.783  0.00  0.00    +0.036 A 
ATOM     27  C   UNL     1       2.649  -9.235  -6.750  0.00  0.00    +0.023 A 
ATOM     28  C   UNL     1       3.246 -10.269  -7.445  0.00  0.00    +0.003 A 
ATOM     29  C   UNL     1       2.892 -11.578  -7.183  0.00  0.00    +0.015 A 
ATOM     30  C   UNL     1       1.932 -11.859  -6.217  0.00  0.00    +0.009 A 
ATOM     31  C   UNL     1       1.335 -10.822  -5.512  0.00  0.00    +0.038 A 
BRANCH  30  32
ATOM     32  S   UNL     1       1.480 -13.529  -5.883  0.00  0.00    -0.129 S 
ATOM     33  C   UNL     1       2.509 -14.498  -7.019  0.00  0.00    +0.090 C 
ENDBRANCH  30  32
ENDBRANCH  16  26
BRANCH   1  35
ATOM     34  C   UNL     1      -1.704  -0.559   1.563  0.00  0.00    +0.277 C 
ATOM     35  O   UNL     1      -1.711  -1.883   1.025  0.00  0.00    -0.495 OA
ENDBRANCH   1  35
TORSDOF 4
