REMARK  Name = ZINC05501356
REMARK  2 active torsions:
REMARK  status: ('A' for Active; 'I' for Inactive)
REMARK    1  A    between atoms: C_6  and  C_7
REMARK    2  A    between atoms: N_12  and  C_19
REMARK                            x       y       z     vdW  Elec       q    Type
REMARK                         _______ _______ _______ _____ _____    ______ ____
ROOT
ATOM      1  C   UNL     1      -1.293  -0.775   0.010  0.00  0.00    +0.111 C 
ATOM      2  C   UNL     1      -1.351  -1.603   1.256  0.00  0.00    +0.029 A 
ATOM      3  C   UNL     1      -0.637  -1.251   2.421  0.00  0.00    +0.141 A 
ATOM      4  N   UNL     1      -0.871  -2.145   3.339  0.00  0.00    -0.177 NA
ATOM      5  N   UNL     1      -1.737  -3.099   2.805  0.00  0.00    -0.247 N 
ATOM      6  C   UNL     1      -2.026  -2.744   1.514  0.00  0.00    +0.128 A 
ATOM      7  N   UNL     1      -2.870  -3.506   0.742  0.00  0.00    -0.270 N 
ATOM      8  C   UNL     1      -3.283  -3.455  -0.489  0.00  0.00    +0.228 C 
ATOM      9  O   UNL     1      -3.964  -4.397  -0.837  0.00  0.00    -0.275 OA
ATOM     10  C   UNL     1      -3.055  -2.433  -1.532  0.00  0.00    +0.166 C 
ATOM     11  S   UNL     1      -1.391  -1.751  -1.492  0.00  0.00    -0.138 S 
ATOM     12  H   UNL     1      -3.244  -4.256   1.229  0.00  0.00    +0.156 HD
ENDROOT
BRANCH   1  18
ATOM     13  C   UNL     1      -0.017   1.378   0.010  0.00  0.00    +0.006 A 
ATOM     14  C   UNL     1       1.171   2.086   0.002  0.00  0.00    +0.015 A 
ATOM     15  C   UNL     1       2.378   1.411  -0.013  0.00  0.00    +0.018 A 
ATOM     16  C   UNL     1       2.396   0.027  -0.021  0.00  0.00    +0.015 A 
ATOM     17  C   UNL     1       1.208  -0.679  -0.013  0.00  0.00    +0.006 A 
ATOM     18  C   UNL     1       0.002  -0.004   0.002  0.00  0.00    -0.030 A 
ATOM     19 BR   UNL     1       4.003   2.378  -0.024  0.00  0.00    -0.050 Br
ENDBRANCH   1  18
BRANCH   5  20
ATOM     20  C   UNL     1      -2.251  -4.278   3.506  0.00  0.00    +0.109 C 
ATOM     21  C   UNL     1      -3.039  -3.835   4.740  0.00  0.00    +0.027 C 
ATOM     22  C   UNL     1      -3.575  -5.067   5.472  0.00  0.00    +0.002 C 
ATOM     23  C   UNL     1      -2.405  -5.953   5.905  0.00  0.00    +0.000 C 
ATOM     24  C   UNL     1      -1.617  -6.396   4.670  0.00  0.00    +0.002 C 
ATOM     25  C   UNL     1      -1.080  -5.164   3.939  0.00  0.00    +0.027 C 
ENDBRANCH   5  20
TORSDOF 2
