REMARK  Name = ZINC32602784
REMARK  10 active torsions:
REMARK  status: ('A' for Active; 'I' for Inactive)
REMARK    1  A    between atoms: C_1  and  C_2
REMARK    2  A    between atoms: C_2  and  C_4
REMARK    3  A    between atoms: C_2  and  N_15
REMARK    4  A    between atoms: C_16  and  C_18
REMARK    5  A    between atoms: C_18  and  C_20
REMARK    6  A    between atoms: C_18  and  N_31
REMARK    7  A    between atoms: C_20  and  C_21
REMARK    8  A    between atoms: C_32  and  O_34
REMARK    9  A    between atoms: O_34  and  C_35
REMARK   10  A    between atoms: C_35  and  C_36
REMARK                            x       y       z     vdW  Elec       q    Type
REMARK                         _______ _______ _______ _____ _____    ______ ____
ROOT
ATOM      1  C   UNL     1       0.002  -0.004   0.002  0.00  0.00    +0.166 C 
ENDROOT
BRANCH   1   3
ATOM      2  N   UNL     1       1.139   2.192   0.003  0.00  0.00    -0.302 N 
ATOM      3  C   UNL     1      -0.018   1.503   0.010  0.00  0.00    +0.234 C 
ATOM      4  O   UNL     1      -1.077   2.095   0.018  0.00  0.00    -0.274 OA
ATOM      5  H   UNL     1       2.099   1.655  -0.009  0.00  0.00    +0.150 HD
BRANCH   2   7
ATOM      6  C   UNL     1       1.001   4.158   1.452  0.00  0.00    +0.038 C 
ATOM      7  C   UNL     1       1.120   3.657   0.011  0.00  0.00    +0.160 C 
BRANCH   7   8
ATOM      8  C   UNL     1       2.395   4.180  -0.599  0.00  0.00    +0.269 C 
ATOM      9  O   UNL     1       3.339   3.442  -0.750  0.00  0.00    -0.269 OA
ATOM     10  N   UNL     1       2.481   5.471  -0.976  0.00  0.00    -0.178 N 
ATOM     11  C   UNL     1       3.576   6.096  -1.541  0.00  0.00    +0.098 A 
ATOM     12  C   UNL     1       4.852   5.675  -1.891  0.00  0.00    +0.030 A 
ATOM     13  C   UNL     1       5.737   6.570  -2.452  0.00  0.00    +0.002 A 
ATOM     14  C   UNL     1       5.359   7.888  -2.669  0.00  0.00    +0.002 A 
ATOM     15  C   UNL     1       4.107   8.318  -2.338  0.00  0.00    +0.032 A 
ATOM     16  C   UNL     1       3.192   7.429  -1.762  0.00  0.00    +0.113 A 
ATOM     17  N   UNL     1       1.916   7.565  -1.328  0.00  0.00    -0.129 NA
ATOM     18  N   UNL     1       1.479   6.446  -0.867  0.00  0.00    -0.057 NA
ENDBRANCH   7   8
ENDBRANCH   2   7
ENDBRANCH   1   3
BRANCH   1  19
ATOM     19  N   UNL     1      -1.372  -0.511   0.012  0.00  0.00    -0.269 N 
ATOM     20  C   UNL     1      -1.634  -1.740   0.502  0.00  0.00    +0.401 C 
ATOM     21  O   UNL     1      -0.729  -2.426   0.934  0.00  0.00    -0.226 OA
ATOM     22  H   UNL     1      -2.191   0.111  -0.379  0.00  0.00    +0.153 HD
BRANCH  20  23
ATOM     23  O   UNL     1      -2.897  -2.205   0.511  0.00  0.00    -0.446 OA
BRANCH  23  24
ATOM     24  C   UNL     1      -3.104  -3.537   1.053  0.00  0.00    +0.269 C 
BRANCH  24  25
ATOM     25  C   UNL     1      -4.569  -3.885   0.982  0.00  0.00    -0.010 A 
ATOM     26  C   UNL     1      -5.404  -3.582   2.040  0.00  0.00    +0.007 A 
ATOM     27  C   UNL     1      -6.748  -3.897   1.973  0.00  0.00    +0.000 A 
ATOM     28  C   UNL     1      -7.255  -4.526   0.851  0.00  0.00    +0.000 A 
ATOM     29  C   UNL     1      -6.419  -4.835  -0.206  0.00  0.00    +0.000 A 
ATOM     30  C   UNL     1      -5.075  -4.514  -0.140  0.00  0.00    +0.007 A 
ENDBRANCH  24  25
ENDBRANCH  23  24
ENDBRANCH  20  23
ENDBRANCH   1  19
BRANCH   1  31
ATOM     31  C   UNL     1       0.718  -0.497  -1.257  0.00  0.00    +0.069 C 
BRANCH  31  32
ATOM     32  C   UNL     1       0.847  -1.998  -1.206  0.00  0.00    -0.020 A 
ATOM     33  C   UNL     1       1.906  -2.694  -0.761  0.00  0.00    +0.087 A 
ATOM     34  N   UNL     1       1.660  -4.036  -0.867  0.00  0.00    -0.360 N 
ATOM     35  H   UNL     1       2.422  -4.761  -0.548  0.00  0.00    +0.165 HD
ATOM     36  C   UNL     1       0.405  -4.242  -1.396  0.00  0.00    +0.047 A 
ATOM     37  C   UNL     1      -0.161  -2.974  -1.625  0.00  0.00    +0.003 A 
ATOM     38  C   UNL     1      -1.447  -2.873  -2.159  0.00  0.00    +0.010 A 
ATOM     39  C   UNL     1      -2.151  -4.006  -2.453  0.00  0.00    +0.001 A 
ATOM     40  C   UNL     1      -1.598  -5.259  -2.225  0.00  0.00    +0.002 A 
ATOM     41  C   UNL     1      -0.328  -5.382  -1.706  0.00  0.00    +0.026 A 
ENDBRANCH  31  32
ENDBRANCH   1  31
TORSDOF 9
