REMARK  Name = ZINC39361689
REMARK  7 active torsions:
REMARK  status: ('A' for Active; 'I' for Inactive)
REMARK    1  A    between atoms: C_1  and  C_2
REMARK    2  A    between atoms: C_6  and  N_8
REMARK    3  A    between atoms: C_9  and  C_27
REMARK    4  A    between atoms: C_13  and  S_14
REMARK    5  A    between atoms: S_14  and  C_15
REMARK    6  A    between atoms: C_15  and  C_16
REMARK    7  A    between atoms: C_27  and  C_28
REMARK                            x       y       z     vdW  Elec       q    Type
REMARK                         _______ _______ _______ _____ _____    ______ ____
ROOT
ATOM      1  N   UNL     1       0.051  -2.797   2.391  0.00  0.00    -0.258 N 
ATOM      2  C   UNL     1      -0.026  -4.258   2.554  0.00  0.00    +0.187 C 
ATOM      3  N   UNL     1       0.030  -4.455   4.013  0.00  0.00    -0.246 N 
ATOM      4  N   UNL     1       0.130  -3.176   4.575  0.00  0.00    -0.162 NA
ATOM      5  C   UNL     1       0.148  -2.260   3.667  0.00  0.00    +0.180 C 
ATOM      6  H   UNL     1       0.003  -5.300   4.489  0.00  0.00    +0.170 HD
ENDROOT
BRANCH   1  12
ATOM      7  C   UNL     1       2.220  -1.649  -1.868  0.00  0.00    +0.044 C 
ATOM      8  C   UNL     1       1.075  -1.513  -0.897  0.00  0.00    -0.049 A 
ATOM      9  C   UNL     1       0.008  -0.687  -1.200  0.00  0.00    +0.003 A 
ATOM     10  C   UNL     1      -1.045  -0.560  -0.312  0.00  0.00    +0.002 A 
ATOM     11  C   UNL     1      -1.034  -1.258   0.880  0.00  0.00    +0.023 A 
ATOM     12  C   UNL     1       0.036  -2.089   1.186  0.00  0.00    +0.038 A 
ATOM     13  C   UNL     1       1.090  -2.219   0.289  0.00  0.00    +0.027 A 
ENDBRANCH   1  12
BRANCH   5  14
ATOM     14  S   UNL     1       0.273  -0.536   4.006  0.00  0.00    -0.079 S 
BRANCH  14  15
ATOM     15  C   UNL     1       0.367  -0.450   5.815  0.00  0.00    +0.173 C 
BRANCH  15  16
ATOM     16  C   UNL     1       0.479   0.990   6.244  0.00  0.00    +0.230 C 
ATOM     17  O   UNL     1       0.494   1.872   5.412  0.00  0.00    -0.274 OA
ATOM     18  N   UNL     1       0.563   1.299   7.554  0.00  0.00    -0.270 N 
ATOM     19  C   UNL     1       0.669   2.658   8.092  0.00  0.00    +0.118 C 
ATOM     20  C   UNL     1       0.736   2.483   9.618  0.00  0.00    +0.056 C 
ATOM     21  C   UNL     1       0.659   0.988   9.834  0.00  0.00    -0.024 A 
ATOM     22  C   UNL     1       0.555   0.369   8.598  0.00  0.00    +0.040 A 
ATOM     23  C   UNL     1       0.464  -1.023   8.543  0.00  0.00    +0.024 A 
ATOM     24  C   UNL     1       0.474  -1.766   9.705  0.00  0.00    +0.002 A 
ATOM     25  C   UNL     1       0.574  -1.139  10.932  0.00  0.00    +0.000 A 
ATOM     26  C   UNL     1       0.673   0.239  10.994  0.00  0.00    +0.005 A 
ENDBRANCH  15  16
ENDBRANCH  14  15
ENDBRANCH   5  14
BRANCH   2  27
ATOM     27  C   UNL     1      -1.343  -4.793   1.988  0.00  0.00    +0.097 C 
BRANCH  27  28
ATOM     28  C   UNL     1      -1.397  -6.288   2.168  0.00  0.00    +0.029 A 
ATOM     29  N   UNL     1      -0.812  -7.113   1.246  0.00  0.00    -0.311 N 
ATOM     30  C   UNL     1      -0.855  -8.449   1.397  0.00  0.00    +0.327 A 
ATOM     31  O   UNL     1      -0.329  -9.164   0.566  0.00  0.00    -0.247 OA
ATOM     32  N   UNL     1      -1.470  -9.007   2.457  0.00  0.00    -0.275 N 
ATOM     33  C   UNL     1      -2.058  -8.228   3.388  0.00  0.00    +0.254 A 
ATOM     34  O   UNL     1      -2.615  -8.732   4.346  0.00  0.00    -0.268 OA
ATOM     35  C   UNL     1      -2.017  -6.821   3.243  0.00  0.00    +0.091 A 
ATOM     36  H   UNL     1      -1.491  -9.972   2.550  0.00  0.00    +0.173 HD
ATOM     37  H   UNL     1      -0.364  -6.731   0.475  0.00  0.00    +0.170 HD
ENDBRANCH  27  28
ENDBRANCH   2  27
TORSDOF 6
