REMARK  Name = ZINC20882161
REMARK  8 active torsions:
REMARK  status: ('A' for Active; 'I' for Inactive)
REMARK    1  A    between atoms: C_1  and  C_2
REMARK    2  A    between atoms: C_2  and  C_3
REMARK    3  A    between atoms: C_6  and  C_9
REMARK    4  A    between atoms: C_14  and  C_19
REMARK    5  A    between atoms: C_21  and  O_27
REMARK    6  A    between atoms: C_24  and  O_25
REMARK    7  A    between atoms: O_25  and  C_26
REMARK    8  A    between atoms: O_27  and  C_28
REMARK                            x       y       z     vdW  Elec       q    Type
REMARK                         _______ _______ _______ _____ _____    ______ ____
ROOT
ATOM      1  C   UNL     1       2.707  -1.867  -4.753  0.00  0.00    +0.136 C 
ATOM      2  C   UNL     1       2.923  -0.689  -5.673  0.00  0.00    +0.036 C 
ATOM      3  C   UNL     1       2.293  -0.473  -6.839  0.00  0.00    +0.017 C 
ATOM      4  C   UNL     1       2.581   0.782  -7.647  0.00  0.00    +0.060 C 
ATOM      5  C   UNL     1       4.041   1.191  -7.468  0.00  0.00    +0.036 C 
ATOM      6  C   UNL     1       4.271   1.459  -5.976  0.00  0.00    +0.088 C 
ATOM      7  C   UNL     1       3.892   0.231  -5.205  0.00  0.00    +0.163 C 
ATOM      8  O   UNL     1       4.436   0.016  -4.140  0.00  0.00    -0.292 OA
ATOM      9  N   UNL     1       1.369  -1.301  -7.388  0.00  0.00    -0.316 N 
ATOM     10  C   UNL     1       0.298  -1.861  -6.699  0.00  0.00    +0.052 A 
ATOM     11  C   UNL     1      -1.017  -1.597  -7.040  0.00  0.00    +0.025 A 
ATOM     12  C   UNL     1      -2.035  -2.270  -6.384  0.00  0.00    +0.002 A 
ATOM     13  C   UNL     1      -1.739  -3.194  -5.399  0.00  0.00    +0.002 A 
ATOM     14  C   UNL     1      -0.425  -3.442  -5.043  0.00  0.00    +0.025 A 
ATOM     15  C   UNL     1       0.596  -2.759  -5.686  0.00  0.00    +0.049 A 
ATOM     16  N   UNL     1       1.931  -2.943  -5.331  0.00  0.00    -0.331 N 
ATOM     17  H   UNL     1       1.437  -1.573  -8.452  0.00  0.00    +0.152 HD
ATOM     18  H   UNL     1       2.394  -3.927  -5.498  0.00  0.00    +0.147 HD
ENDROOT
BRANCH   1  22
ATOM     19  C   UNL     1       0.708  -0.490  -1.238  0.00  0.00    -0.048 A 
ATOM     20  C   UNL     1       0.062  -0.453  -2.459  0.00  0.00    +0.004 A 
ATOM     21  C   UNL     1       0.711  -0.894  -3.598  0.00  0.00    +0.006 A 
ATOM     22  C   UNL     1       2.001  -1.382  -3.512  0.00  0.00    -0.023 A 
ATOM     23  C   UNL     1       2.645  -1.424  -2.290  0.00  0.00    +0.006 A 
ATOM     24  C   UNL     1       1.998  -0.979  -1.152  0.00  0.00    +0.004 A 
BRANCH  19  26
ATOM     25  C   UNL     1       0.282   1.488   0.196  0.00  0.00    +0.009 C 
ATOM     26  C   UNL     1       0.003  -0.004   0.002  0.00  0.00    +0.032 C 
ENDBRANCH  19  26
ENDBRANCH   1  22
BRANCH   5  27
ATOM     27  C   UNL     1       4.323   2.442  -8.261  0.00  0.00    +0.002 A 
ATOM     28  C   UNL     1       3.593   3.590  -8.022  0.00  0.00    +0.053 A 
ATOM     29  C   UNL     1       3.856   4.742  -8.748  0.00  0.00    +0.121 A 
ATOM     30  C   UNL     1       4.843   4.738  -9.722  0.00  0.00    +0.049 A 
ATOM     31  C   UNL     1       5.569   3.588  -9.965  0.00  0.00    +0.049 A 
ATOM     32  C   UNL     1       5.311   2.438  -9.234  0.00  0.00    +0.124 A 
BRANCH  32  33
ATOM     33  O   UNL     1       6.025   1.306  -9.473  0.00  0.00    -0.495 OA
ATOM     34  C   UNL     1       7.027   1.373 -10.490  0.00  0.00    +0.277 C 
ENDBRANCH  32  33
BRANCH  29  35
ATOM     35  O   UNL     1       3.141   5.874  -8.509  0.00  0.00    -0.495 OA
ATOM     36  C   UNL     1       3.461   7.022  -9.298  0.00  0.00    +0.277 C 
ENDBRANCH  29  35
ENDBRANCH   5  27
TORSDOF 5
