REMARK  Name = ZINC04000158
REMARK  8 active torsions:
REMARK  status: ('A' for Active; 'I' for Inactive)
REMARK    1  A    between atoms: C_1  and  C_2
REMARK    2  A    between atoms: C_8  and  C_26
REMARK    3  A    between atoms: C_8  and  C_27
REMARK    4  A    between atoms: C_9  and  C_16
REMARK    5  A    between atoms: C_13  and  O_15
REMARK    6  A    between atoms: C_17  and  C_18
REMARK    7  A    between atoms: C_21  and  O_24
REMARK    8  A    between atoms: O_24  and  C_25
REMARK                            x       y       z     vdW  Elec       q    Type
REMARK                         _______ _______ _______ _____ _____    ______ ____
ROOT
ATOM      1  C   UNL     1      -0.018   1.503   0.010  0.00  0.00    +0.044 C 
ATOM      2  C   UNL     1       0.002  -0.004   0.002  0.00  0.00    -0.050 A 
ATOM      3  C   UNL     1       0.006  -0.691  -1.198  0.00  0.00    +0.005 A 
ATOM      4  C   UNL     1       0.012  -2.069  -1.209  0.00  0.00    +0.024 A 
ATOM      5  C   UNL     1       0.027  -2.785  -0.011  0.00  0.00    +0.036 A 
ATOM      6  C   UNL     1       0.042  -2.084   1.190  0.00  0.00    -0.016 A 
ATOM      7  C   UNL     1       0.023  -0.704   1.194  0.00  0.00    +0.009 A 
ATOM      8  C   UNL     1       0.116  -3.080   2.329  0.00  0.00    +0.037 C 
ATOM      9  C   UNL     1       0.256  -4.439   1.635  0.00  0.00    +0.159 C 
ATOM     10  N   UNL     1      -0.009  -4.155   0.214  0.00  0.00    -0.301 N 
ATOM     11  C   UNL     1      -0.326  -5.230  -0.739  0.00  0.00    +0.117 C 
ATOM     12  C   UNL     1      -1.563  -5.949  -0.181  0.00  0.00    +0.114 C 
ATOM     13  C   UNL     1      -1.505  -6.048   1.311  0.00  0.00    +0.186 C 
ATOM     14  N   UNL     1      -0.744  -5.394   2.096  0.00  0.00    -0.224 NA
ATOM     15  C   UNL     1      -1.166  -3.034   3.163  0.00  0.00    +0.020 C 
ATOM     16  C   UNL     1       1.337  -2.799   3.206  0.00  0.00    +0.020 C 
ENDROOT
BRANCH  13  17
ATOM     17  O   UNL     1      -2.351  -6.926   1.888  0.00  0.00    -0.496 OA
ATOM     18  H   UNL     1      -2.284  -6.962   2.852  0.00  0.00    +0.293 HD
ENDBRANCH  13  17
BRANCH   9  19
ATOM     19  C   UNL     1       1.644  -4.991   1.833  0.00  0.00    +0.024 C 
ATOM     20  C   UNL     1       1.813  -6.155   2.446  0.00  0.00    +0.007 C 
BRANCH  20  21
ATOM     21  C   UNL     1       3.174  -6.697   2.640  0.00  0.00    -0.025 A 
ATOM     22  C   UNL     1       4.283  -5.983   2.184  0.00  0.00    +0.011 A 
ATOM     23  C   UNL     1       5.551  -6.492   2.368  0.00  0.00    +0.046 A 
ATOM     24  C   UNL     1       5.726  -7.713   3.005  0.00  0.00    +0.120 A 
ATOM     25  C   UNL     1       4.625  -8.427   3.459  0.00  0.00    +0.046 A 
ATOM     26  C   UNL     1       3.354  -7.921   3.285  0.00  0.00    +0.011 A 
BRANCH  24  27
ATOM     27  O   UNL     1       6.977  -8.211   3.183  0.00  0.00    -0.495 OA
ATOM     28  C   UNL     1       7.084  -9.473   3.846  0.00  0.00    +0.277 C 
ENDBRANCH  24  27
ENDBRANCH  20  21
ENDBRANCH   9  19
TORSDOF 4
