REMARK  Name = ZINC09331827
REMARK  5 active torsions:
REMARK  status: ('A' for Active; 'I' for Inactive)
REMARK    1  A    between atoms: C_1  and  C_2
REMARK    2  A    between atoms: C_7  and  C_8
REMARK    3  A    between atoms: C_13  and  C_30
REMARK    4  A    between atoms: C_30  and  C_32
REMARK    5  A    between atoms: C_36  and  N_38
REMARK                            x       y       z     vdW  Elec       q    Type
REMARK                         _______ _______ _______ _____ _____    ______ ____
ROOT
ATOM      1  C   UNL     1       1.727  -0.553  -5.010  0.00  0.00    +0.044 C 
ATOM      2  C   UNL     1       2.427   0.344  -4.022  0.00  0.00    -0.046 A 
ATOM      3  C   UNL     1       3.048  -0.204  -2.915  0.00  0.00    +0.004 A 
ATOM      4  C   UNL     1       3.691   0.620  -2.008  0.00  0.00    +0.005 A 
ATOM      5  C   UNL     1       3.714   1.982  -2.210  0.00  0.00    -0.027 A 
ATOM      6  C   UNL     1       3.091   2.545  -3.320  0.00  0.00    +0.039 A 
ATOM      7  C   UNL     1       2.446   1.708  -4.228  0.00  0.00    -0.026 A 
ATOM      8  C   UNL     1       1.766   2.295  -5.438  0.00  0.00    +0.046 C 
ATOM      9  N   UNL     1       3.245   3.933  -3.308  0.00  0.00    -0.286 N 
ATOM     10  C   UNL     1       3.948   4.357  -2.240  0.00  0.00    +0.212 C 
ATOM     11  O   UNL     1       4.236   5.504  -1.971  0.00  0.00    -0.277 OA
ATOM     12  C   UNL     1       4.307   3.131  -1.446  0.00  0.00    +0.052 C 
ATOM     13  C   UNL     1       3.731   3.207  -0.017  0.00  0.00    +0.080 C 
ATOM     14  C   UNL     1       4.828   4.024   0.695  0.00  0.00    +0.071 C 
ATOM     15  C   UNL     1       4.832   3.771   2.174  0.00  0.00    -0.012 A 
ATOM     16  C   UNL     1       4.991   2.641   2.945  0.00  0.00    +0.006 A 
ATOM     17  C   UNL     1       4.945   2.732   4.324  0.00  0.00    +0.000 A 
ATOM     18  C   UNL     1       4.738   3.959   4.927  0.00  0.00    +0.002 A 
ATOM     19  C   UNL     1       4.577   5.094   4.159  0.00  0.00    +0.023 A 
ATOM     20  C   UNL     1       4.622   5.012   2.769  0.00  0.00    +0.038 A 
ATOM     21  N   UNL     1       4.489   6.001   1.792  0.00  0.00    -0.285 N 
ATOM     22  C   UNL     1       4.599   5.501   0.545  0.00  0.00    +0.227 C 
ATOM     23  O   UNL     1       4.526   6.121  -0.495  0.00  0.00    -0.275 OA
ATOM     24  C   UNL     1       6.132   3.573   0.030  0.00  0.00    -0.046 C 
ATOM     25  C   UNL     1       6.136   1.559  -1.276  0.00  0.00    -0.076 C 
ATOM     26  C   UNL     1       7.275   1.458  -0.231  0.00  0.00    -0.020 C 
ATOM     27  C   UNL     1       6.769   2.439   0.860  0.00  0.00    -0.016 C 
ATOM     28  H   UNL     1       2.888   4.523  -3.990  0.00  0.00    +0.155 HD
ATOM     29  H   UNL     1       4.336   6.939   1.988  0.00  0.00    +0.155 HD
ATOM     30  N   UNL     1       5.758   2.992  -1.268  0.00  0.00    +0.395 N 
ATOM     31  H   UNL     1       6.247   3.483  -2.025  0.00  0.00    -0.079 HD
ENDROOT
BRANCH  13  32
ATOM     32  C   UNL     1       2.413   3.937  -0.001  0.00  0.00    +0.167 C 
ATOM     33  O   UNL     1       2.391   5.149   0.005  0.00  0.00    -0.292 OA
BRANCH  32  34
ATOM     34  C   UNL     1       1.152   3.178   0.008  0.00  0.00    +0.020 A 
ATOM     35  C   UNL     1       1.173   1.780   0.000  0.00  0.00    +0.011 A 
ATOM     36  C   UNL     1      -0.013   1.076   0.008  0.00  0.00    +0.003 A 
ATOM     37  C   UNL     1      -1.222   1.750   0.017  0.00  0.00    +0.033 A 
ATOM     38  C   UNL     1      -1.251   3.133   0.030  0.00  0.00    +0.127 A 
ATOM     39  C   UNL     1      -0.074   3.852   0.022  0.00  0.00    +0.044 A 
BRANCH  38  40
ATOM     40  N   UNL     1      -2.549   3.844   0.046  0.00  0.00    +0.056 N 
ATOM     41  O   UNL     1      -2.577   5.062   0.052  0.00  0.00    -0.126 OA
ATOM     42  O   UNL     1      -3.590   3.211   0.052  0.00  0.00    -0.126 OA
ENDBRANCH  38  40
ENDBRANCH  32  34
ENDBRANCH  13  32
TORSDOF 3
