REMARK  Name = ZINC38731624
REMARK  11 active torsions:
REMARK  status: ('A' for Active; 'I' for Inactive)
REMARK    1  A    between atoms: C_1  and  C_2
REMARK    2  A    between atoms: C_5  and  C_8
REMARK    3  A    between atoms: C_8  and  N_9
REMARK    4  A    between atoms: N_9  and  C_10
REMARK    5  A    between atoms: C_11  and  C_21
REMARK    6  A    between atoms: C_12  and  C_20
REMARK    7  A    between atoms: C_13  and  C_18
REMARK    8  A    between atoms: N_16  and  C_17
REMARK    9  A    between atoms: N_25  and  C_29
REMARK   10  A    between atoms: C_29  and  C_30
REMARK   11  A    between atoms: C_33  and  C_36
REMARK                            x       y       z     vdW  Elec       q    Type
REMARK                         _______ _______ _______ _____ _____    ______ ____
ROOT
ATOM      1  C   UNL     1       1.567  -6.393   0.256  0.00  0.00    +0.109 A 
ATOM      2  C   UNL     1       2.908  -6.713  -0.016  0.00  0.00    +0.019 A 
ATOM      3  C   UNL     1       3.266  -8.053  -0.240  0.00  0.00    -0.017 A 
ATOM      4  C   UNL     1       2.278  -9.032  -0.187  0.00  0.00    +0.120 A 
ATOM      5  C   UNL     1       0.939  -8.656   0.091  0.00  0.00    +0.270 A 
ATOM      6  O   UNL     1       0.070  -9.509   0.139  0.00  0.00    -0.266 OA
ATOM      7  N   UNL     1       0.622  -7.367   0.307  0.00  0.00    -0.298 N 
ATOM      8  C   UNL     1      -0.767  -7.007   0.599  0.00  0.00    +0.154 C 
ATOM      9  C   UNL     1       4.697  -8.424  -0.534  0.00  0.00    +0.046 C 
ENDROOT
BRANCH   2  10
ATOM     10  C   UNL     1       3.923  -5.659  -0.065  0.00  0.00    +0.032 C 
ATOM     11  C   UNL     1       4.906  -5.617   0.875  0.00  0.00    +0.077 C 
ATOM     12  C   UNL     1       5.986  -4.693   1.019  0.00  0.00    +0.259 C 
ATOM     13  O   UNL     1       6.133  -3.773   0.236  0.00  0.00    -0.269 OA
ATOM     14  N   UNL     1       6.820  -4.867   2.029  0.00  0.00    -0.251 N 
ATOM     15  C   UNL     1       6.656  -5.889   2.899  0.00  0.00    +0.121 C 
ATOM     16  S   UNL     1       7.606  -6.299   4.263  0.00  0.00    -0.027 S 
ATOM     17  S   UNL     1       5.193  -6.698   2.269  0.00  0.00    -0.061 S 
BRANCH  14  18
ATOM     18  C   UNL     1       7.940  -3.940   2.208  0.00  0.00    +0.150 C 
BRANCH  18  19
ATOM     19  C   UNL     1       7.508  -2.794   3.087  0.00  0.00    -0.030 A 
ATOM     20  C   UNL     1       6.953  -1.661   2.522  0.00  0.00    +0.005 A 
ATOM     21  C   UNL     1       6.557  -0.610   3.328  0.00  0.00    +0.003 A 
ATOM     22  C   UNL     1       6.714  -0.693   4.699  0.00  0.00    -0.050 A 
ATOM     23  C   UNL     1       7.267  -1.827   5.264  0.00  0.00    +0.003 A 
ATOM     24  C   UNL     1       7.660  -2.879   4.458  0.00  0.00    +0.005 A 
ATOM     25  C   UNL     1       6.282   0.453   5.577  0.00  0.00    +0.044 C 
ENDBRANCH  18  19
ENDBRANCH  14  18
ENDBRANCH   2  10
BRANCH   1  26
ATOM     26  N   UNL     1       1.212  -5.094   0.475  0.00  0.00    -0.326 N 
ATOM     27  H   UNL     1       1.606  -4.602   1.212  0.00  0.00    +0.148 HD
BRANCH  26  28
ATOM     28  C   UNL     1       0.237  -4.443  -0.403  0.00  0.00    +0.138 C 
BRANCH  28  33
ATOM     29  C   UNL     1      -0.919   0.856   1.592  0.00  0.00    +0.044 C 
ATOM     30  C   UNL     1      -0.617  -0.526   1.072  0.00  0.00    -0.050 A 
ATOM     31  C   UNL     1       0.415  -0.716   0.172  0.00  0.00    +0.003 A 
ATOM     32  C   UNL     1       0.691  -1.983  -0.305  0.00  0.00    +0.005 A 
ATOM     33  C   UNL     1      -0.064  -3.061   0.118  0.00  0.00    -0.030 A 
ATOM     34  C   UNL     1      -1.095  -2.871   1.019  0.00  0.00    +0.005 A 
ATOM     35  C   UNL     1      -1.369  -1.605   1.499  0.00  0.00    +0.003 A 
ENDBRANCH  28  33
ENDBRANCH  26  28
ENDBRANCH   1  26
BRANCH   4  36
ATOM     36  C   UNL     1       2.611 -10.406  -0.412  0.00  0.00    +0.105 C 
ATOM     37  N   UNL     1       2.875 -11.497  -0.590  0.00  0.00    -0.191 NA
ENDBRANCH   4  36
TORSDOF 7
