REMARK  Name = ZINC18153805
REMARK  7 active torsions:
REMARK  status: ('A' for Active; 'I' for Inactive)
REMARK    1  A    between atoms: C_1  and  N_2
REMARK    2  A    between atoms: N_2  and  C_3
REMARK    3  A    between atoms: C_3  and  C_4
REMARK    4  A    between atoms: C_7  and  S_10
REMARK    5  A    between atoms: S_10  and  C_11
REMARK    6  A    between atoms: C_12  and  C_14
REMARK    7  A    between atoms: C_14  and  C_15
REMARK                            x       y       z     vdW  Elec       q    Type
REMARK                         _______ _______ _______ _____ _____    ______ ____
ROOT
ATOM      1  C   UNL     1      -0.018   1.461   0.010  0.00  0.00    +0.132 C 
ATOM      2  N   UNL     1       0.002  -0.004   0.002  0.00  0.00    -0.300 N 
ATOM      3  C   UNL     1       0.000  -0.672  -1.169  0.00  0.00    +0.216 C 
ATOM      4  O   UNL     1       0.017  -1.884  -1.175  0.00  0.00    -0.276 OA
ENDROOT
BRANCH   2   5
ATOM      5  C   UNL     1       0.024  -0.743   1.267  0.00  0.00    +0.142 C 
BRANCH   5   6
ATOM      6  C   UNL     1      -1.389  -1.016   1.714  0.00  0.00    -0.030 A 
ATOM      7  C   UNL     1      -2.046  -0.103   2.519  0.00  0.00    +0.006 A 
ATOM      8  C   UNL     1      -3.341  -0.350   2.931  0.00  0.00    +0.015 A 
ATOM      9  C   UNL     1      -3.983  -1.517   2.535  0.00  0.00    +0.008 A 
ATOM     10  C   UNL     1      -3.320  -2.432   1.726  0.00  0.00    +0.015 A 
ATOM     11  C   UNL     1      -2.027  -2.176   1.313  0.00  0.00    +0.006 A 
BRANCH   9  12
ATOM     12  S   UNL     1      -5.635  -1.837   3.059  0.00  0.00    -0.129 S 
ATOM     13  C   UNL     1      -6.032  -3.439   2.307  0.00  0.00    +0.090 C 
ENDBRANCH   9  12
ENDBRANCH   5   6
ENDBRANCH   2   5
BRANCH   3  14
ATOM     14  C   UNL     1      -0.023   0.089  -2.470  0.00  0.00    +0.103 C 
BRANCH  14  15
ATOM     15  C   UNL     1      -0.020  -0.899  -3.638  0.00  0.00    -0.019 C 
ATOM     16  C   UNL     1      -1.257  -1.796  -3.550  0.00  0.00    +0.011 C 
ATOM     17  C   UNL     1      -1.254  -2.784  -4.718  0.00  0.00    -0.009 C 
ATOM     18  C   UNL     1      -1.277  -2.012  -6.039  0.00  0.00    +0.007 C 
ATOM     19  C   UNL     1      -0.041  -1.115  -6.127  0.00  0.00    -0.009 C 
ATOM     20  C   UNL     1      -0.043  -0.127  -4.959  0.00  0.00    +0.011 C 
ATOM     21  C   UNL     1       1.221  -1.978  -6.063  0.00  0.00    +0.021 C 
ATOM     22  C   UNL     1       1.244  -2.750  -4.742  0.00  0.00    +0.027 C 
ATOM     23  C   UNL     1       0.008  -3.647  -4.654  0.00  0.00    +0.021 C 
ATOM     24  C   UNL     1       1.242  -1.762  -3.574  0.00  0.00    +0.025 C 
ATOM     25 BR   UNL     1       2.865  -3.859  -4.659  0.00  0.00    -0.084 Br
ENDBRANCH  14  15
ENDBRANCH   3  14
TORSDOF 5
