REMARK  Name = ZINC21532497
REMARK  5 active torsions:
REMARK  status: ('A' for Active; 'I' for Inactive)
REMARK    1  A    between atoms: C_1  and  C_2
REMARK    2  A    between atoms: C_2  and  N_3
REMARK    3  A    between atoms: C_9  and  C_11
REMARK    4  A    between atoms: N_16  and  S_18
REMARK    5  A    between atoms: S_18  and  C_21
REMARK                            x       y       z     vdW  Elec       q    Type
REMARK                         _______ _______ _______ _____ _____    ______ ____
ROOT
ATOM      1  C   UNL     1      -0.773   5.342  -2.062  0.00  0.00    +0.091 C 
ATOM      2  C   UNL     1      -2.260   5.592  -1.804  0.00  0.00    +0.015 C 
ATOM      3  C   UNL     1      -2.514   7.097  -1.688  0.00  0.00    +0.018 C 
ATOM      4  C   UNL     1      -2.131   7.778  -3.006  0.00  0.00    +0.109 C 
ATOM      5  N   UNL     1      -0.744   7.423  -3.336  0.00  0.00    -0.176 NA
ATOM      6  C   UNL     1      -0.370   6.003  -3.384  0.00  0.00    +0.122 C 
ENDROOT
BRANCH   1  13
ATOM      7  N   UNL     1       0.930   1.853   1.093  0.00  0.00    -0.300 NA
ATOM      8  C   UNL     1       1.030   1.286  -0.258  0.00  0.00    +0.103 C 
ATOM      9  C   UNL     1      -0.212   1.677  -1.066  0.00  0.00    +0.123 C 
ATOM     10  N   UNL     1      -0.361   3.139  -1.015  0.00  0.00    -0.299 N 
ATOM     11  C   UNL     1      -0.333   3.796   0.301  0.00  0.00    +0.123 C 
ATOM     12  C   UNL     1       0.914   3.321   1.055  0.00  0.00    +0.103 C 
ATOM     13  C   UNL     1      -0.519   3.859  -2.143  0.00  0.00    +0.220 C 
ATOM     14  O   UNL     1      -0.457   3.312  -3.224  0.00  0.00    -0.275 OA
BRANCH   7  16
ATOM     15  C   UNL     1       2.030   2.152   3.261  0.00  0.00    +0.020 C 
ATOM     16  C   UNL     1       2.015   1.360   1.952  0.00  0.00    +0.081 C 
ENDBRANCH   7  16
ENDBRANCH   1  13
BRANCH   5  17
ATOM     17  S   UNL     1       0.377   8.601  -3.648  0.00  0.00    +0.061 S 
ATOM     18  O   UNL     1      -0.084   9.781  -3.004  0.00  0.00    -0.153 OA
ATOM     19  O   UNL     1       1.651   8.033  -3.377  0.00  0.00    -0.153 OA
BRANCH  17  20
ATOM     20  C   UNL     1       0.328   8.921  -5.380  0.00  0.00    +0.106 A 
ATOM     21  C   UNL     1       1.144   8.214  -6.244  0.00  0.00    +0.030 A 
ATOM     22  C   UNL     1       1.086   8.468  -7.592  0.00  0.00    +0.025 A 
ATOM     23  C   UNL     1       0.220   9.443  -8.118  0.00  0.00    +0.037 A 
ATOM     24  C   UNL     1      -0.580  10.155  -7.252  0.00  0.00    -0.024 A 
ATOM     25  C   UNL     1      -0.519   9.882  -5.884  0.00  0.00    +0.034 A 
ATOM     26  C   UNL     1      -1.530  11.238  -7.650  0.00  0.00    +0.037 C 
ATOM     27  C   UNL     1      -1.087  12.106  -8.786  0.00  0.00    +0.014 C 
ATOM     28  C   UNL     1      -1.250  11.456 -10.139  0.00  0.00    +0.096 C 
ATOM     29  C   UNL     1      -0.235  10.394 -10.369  0.00  0.00    +0.217 C 
ATOM     30  O   UNL     1       0.179  10.281 -11.504  0.00  0.00    -0.275 OA
ATOM     31  N   UNL     1       0.258   9.572  -9.488  0.00  0.00    -0.285 N 
ATOM     32  H   UNL     1       0.821   8.846 -10.093  0.00  0.00    +0.155 HD
ENDBRANCH  17  20
ENDBRANCH   5  17
TORSDOF 4
