REMARK  Name = ZINC20241376
REMARK  11 active torsions:
REMARK  status: ('A' for Active; 'I' for Inactive)
REMARK    1  A    between atoms: C_1  and  C_2
REMARK    2  A    between atoms: C_8  and  N_10
REMARK    3  A    between atoms: N_10  and  C_11
REMARK    4  A    between atoms: N_10  and  C_12
REMARK    5  A    between atoms: N_15  and  C_18
REMARK    6  A    between atoms: C_18  and  C_19
REMARK    7  A    between atoms: C_19  and  C_20
REMARK    8  A    between atoms: C_20  and  N_21
REMARK    9  A    between atoms: C_22  and  C_23
REMARK   10  A    between atoms: C_22  and  O_33
REMARK   11  A    between atoms: C_24  and  C_25
REMARK                            x       y       z     vdW  Elec       q    Type
REMARK                         _______ _______ _______ _____ _____    ______ ____
ROOT
ATOM      1  C   UNL     1       4.733   0.468  -3.743  0.00  0.00    +0.086 C 
ENDROOT
BRANCH   1   5
ATOM      2  C   UNL     1       2.826  -0.162   0.032  0.00  0.00    -0.066 C 
ATOM      3  C   UNL     1       1.995   0.315  -1.162  0.00  0.00    +0.000 C 
ATOM      4  C   UNL     1       2.738  -0.014  -2.459  0.00  0.00    +0.083 C 
ATOM      5  N   UNL     1       4.049   0.648  -2.456  0.00  0.00    -0.302 NA
ATOM      6  C   UNL     1       4.883   0.171  -1.345  0.00  0.00    +0.083 C 
ATOM      7  C   UNL     1       4.204   0.506  -0.015  0.00  0.00    +0.000 C 
BRANCH   2   8
ATOM      8  N   UNL     1       2.146   0.204   1.281  0.00  0.00    +0.382 N 
ATOM      9  C   UNL     1       3.010  -0.123   2.423  0.00  0.00    -0.095 C 
ATOM     10  H   UNL     1       1.950   1.193   1.280  0.00  0.00    -0.081 HD
BRANCH   8  17
ATOM     11  C   UNL     1       0.510   0.419   3.664  0.00  0.00    +0.006 C 
ATOM     12  C   UNL     1      -0.094   0.232   2.271  0.00  0.00    -0.028 C 
ATOM     13  C   UNL     1      -1.405  -0.548   2.385  0.00  0.00    +0.002 C 
ATOM     14  C   UNL     1      -1.132  -1.918   3.010  0.00  0.00    +0.000 C 
ATOM     15  C   UNL     1      -0.151  -2.694   2.130  0.00  0.00    -0.002 C 
ATOM     16  C   UNL     1       1.160  -1.914   2.016  0.00  0.00    -0.015 C 
ATOM     17  C   UNL     1       0.887  -0.545   1.390  0.00  0.00    -0.066 C 
ENDBRANCH   8  17
ENDBRANCH   2   8
ENDBRANCH   1   5
BRANCH   1  18
ATOM     18  C   UNL     1       5.969   1.369  -3.795  0.00  0.00    +0.036 C 
BRANCH  18  19
ATOM     19  C   UNL     1       6.681   1.181  -5.135  0.00  0.00    +0.117 C 
BRANCH  19  20
ATOM     20  N   UNL     1       7.864   2.044  -5.185  0.00  0.00    -0.356 N 
ATOM     21  C   UNL     1       9.056   1.514  -5.239  0.00  0.00    +0.186 C 
ATOM     22  H   UNL     1       7.762   3.008  -5.177  0.00  0.00    +0.162 HD
BRANCH  21  23
ATOM     23  C   UNL     1      10.240   2.378  -5.288  0.00  0.00    +0.065 C 
ATOM     24  C   UNL     1      11.470   1.832  -5.345  0.00  0.00    +0.014 C 
BRANCH  24  25
ATOM     25  C   UNL     1      12.659   2.699  -5.394  0.00  0.00    -0.006 A 
ATOM     26  C   UNL     1      12.515   4.090  -5.377  0.00  0.00    +0.011 A 
ATOM     27  C   UNL     1      13.632   4.896  -5.423  0.00  0.00    +0.020 A 
ATOM     28  C   UNL     1      14.896   4.331  -5.486  0.00  0.00    +0.042 A 
ATOM     29  C   UNL     1      15.047   2.955  -5.503  0.00  0.00    +0.040 A 
ATOM     30  C   UNL     1      13.938   2.135  -5.452  0.00  0.00    +0.049 A 
ATOM     31 CL   UNL     1      14.129   0.410  -5.468  0.00  0.00    -0.083 Cl
ATOM     32 CL   UNL     1      16.297   5.354  -5.545  0.00  0.00    -0.083 Cl
ENDBRANCH  24  25
ENDBRANCH  21  23
BRANCH  21  33
ATOM     33  O   UNL     1       9.199   0.169  -5.250  0.00  0.00    -0.494 OA
ATOM     34  H   UNL     1      10.118  -0.129  -5.292  0.00  0.00    +0.294 HD
ENDBRANCH  21  33
ENDBRANCH  19  20
ENDBRANCH  18  19
ENDBRANCH   1  18
TORSDOF 9
