REMARK  Name = ZINC00920121
REMARK  11 active torsions:
REMARK  status: ('A' for Active; 'I' for Inactive)
REMARK    1  A    between atoms: C_1  and  C_2
REMARK    2  A    between atoms: C_4  and  C_37
REMARK    3  A    between atoms: C_7  and  C_14
REMARK    4  A    between atoms: C_14  and  N_15
REMARK    5  A    between atoms: N_15  and  C_16
REMARK    6  A    between atoms: N_15  and  C_26
REMARK    7  A    between atoms: C_16  and  C_17
REMARK    8  A    between atoms: C_26  and  N_28
REMARK    9  A    between atoms: N_28  and  C_29
REMARK   10  A    between atoms: C_33  and  O_35
REMARK   11  A    between atoms: O_35  and  C_36
REMARK                            x       y       z     vdW  Elec       q    Type
REMARK                         _______ _______ _______ _____ _____    ______ ____
ROOT
ATOM      1  N   UNL     1       1.027   7.354   0.234  0.00  0.00    -0.304 N 
ENDROOT
BRANCH   1   2
ATOM      2  C   UNL     1       0.965   6.011   0.329  0.00  0.00    +0.138 C 
ATOM      3  S   UNL     1       2.401   5.099   0.529  0.00  0.00    -0.018 S 
BRANCH   2   4
ATOM      4  N   UNL     1      -0.227   5.385   0.265  0.00  0.00    -0.297 N 
ATOM      5  H   UNL     1      -1.031   5.892   0.072  0.00  0.00    +0.154 HD
BRANCH   4   6
ATOM      6  C   UNL     1      -0.304   4.005   0.478  0.00  0.00    +0.036 A 
ATOM      7  C   UNL     1       0.435   3.415   1.497  0.00  0.00    +0.023 A 
ATOM      8  C   UNL     1       0.358   2.053   1.707  0.00  0.00    +0.005 A 
ATOM      9  C   UNL     1      -0.453   1.271   0.906  0.00  0.00    +0.046 A 
ATOM     10  C   UNL     1      -1.190   1.854  -0.116  0.00  0.00    +0.122 A 
ATOM     11  C   UNL     1      -1.120   3.222  -0.327  0.00  0.00    +0.069 A 
BRANCH  10  12
ATOM     12  O   UNL     1      -1.982   1.084  -0.907  0.00  0.00    -0.495 OA
ATOM     13  C   UNL     1      -2.010  -0.318  -0.629  0.00  0.00    +0.277 C 
ENDBRANCH  10  12
ENDBRANCH   4   6
ENDBRANCH   2   4
ENDBRANCH   1   2
BRANCH   1  14
ATOM     14  C   UNL     1       2.328   8.028   0.225  0.00  0.00    +0.147 C 
BRANCH  14  21
ATOM     15  C   UNL     1       4.162  10.331  -7.189  0.00  0.00    +0.044 C 
ATOM     16  C   UNL     1       3.727  10.111  -5.763  0.00  0.00    -0.048 A 
ATOM     17  C   UNL     1       3.098  11.136  -5.070  0.00  0.00    +0.007 A 
ATOM     18  C   UNL     1       2.696  10.957  -3.777  0.00  0.00    -0.041 A 
ATOM     19  C   UNL     1       2.920   9.730  -3.144  0.00  0.00    +0.002 A 
ATOM     20  C   UNL     1       2.497   9.502  -1.761  0.00  0.00    +0.020 A 
ATOM     21  C   UNL     1       2.746   8.294  -1.199  0.00  0.00    +0.035 A 
ATOM     22  C   UNL     1       3.389   7.282  -1.943  0.00  0.00    +0.254 A 
ATOM     23  O   UNL     1       3.598   6.201  -1.420  0.00  0.00    -0.268 OA
ATOM     24  N   UNL     1       3.776   7.480  -3.216  0.00  0.00    -0.322 N 
ATOM     25  H   UNL     1       4.215   6.763  -3.699  0.00  0.00    +0.169 HD
ATOM     26  C   UNL     1       3.557   8.688  -3.844  0.00  0.00    +0.050 A 
ATOM     27  C   UNL     1       3.958   8.893  -5.160  0.00  0.00    +0.029 A 
ATOM     28  C   UNL     1       2.013  12.077  -3.035  0.00  0.00    +0.044 C 
ENDBRANCH  14  21
ENDBRANCH   1  14
BRANCH   1  29
ATOM     29  C   UNL     1      -0.206   8.139   0.141  0.00  0.00    +0.142 C 
BRANCH  29  30
ATOM     30  C   UNL     1      -0.671   8.510   1.526  0.00  0.00    -0.026 A 
ATOM     31  C   UNL     1      -1.534   7.675   2.210  0.00  0.00    +0.009 A 
ATOM     32  C   UNL     1      -1.959   8.008   3.482  0.00  0.00    +0.050 A 
ATOM     33  C   UNL     1      -1.530   9.187   4.070  0.00  0.00    +0.166 A 
ATOM     34  C   UNL     1      -0.665  10.031   3.379  0.00  0.00    +0.167 A 
ATOM     35  C   UNL     1      -0.238   9.688   2.106  0.00  0.00    +0.054 A 
ATOM     36  O   UNL     1      -0.392  11.114   4.163  0.00  0.00    -0.453 OA
ATOM     37  C   UNL     1      -1.418  11.125   5.173  0.00  0.00    +0.466 C 
ATOM     38  O   UNL     1      -1.800   9.742   5.288  0.00  0.00    -0.453 OA
ENDBRANCH  29  30
ENDBRANCH   1  29
TORSDOF 8
