REMARK  Name = ZINC04641134
REMARK  9 active torsions:
REMARK  status: ('A' for Active; 'I' for Inactive)
REMARK    1  A    between atoms: C_1  and  C_2
REMARK    2  A    between atoms: C_5  and  N_8
REMARK    3  A    between atoms: C_11  and  C_12
REMARK    4  A    between atoms: C_12  and  C_13
REMARK    5  A    between atoms: C_16  and  O_19
REMARK    6  A    between atoms: O_19  and  C_20
REMARK    7  A    between atoms: N_21  and  C_22
REMARK    8  A    between atoms: C_22  and  C_23
REMARK    9  A    between atoms: C_23  and  C_24
REMARK                            x       y       z     vdW  Elec       q    Type
REMARK                         _______ _______ _______ _____ _____    ______ ____
ROOT
ATOM      1  C   UNL     1      -0.930   1.653   0.516  0.00  0.00    +0.064 C 
ATOM      2  N   UNL     1       0.245   0.960   0.460  0.00  0.00    -0.286 NA
ENDROOT
BRANCH   1   6
ATOM      3  N   UNL     1      -3.373  -1.073   1.089  0.00  0.00    -0.193 N 
ATOM      4  C   UNL     1      -2.184  -0.489   0.833  0.00  0.00    +0.245 C 
ATOM      5  O   UNL     1      -1.184  -1.159   0.653  0.00  0.00    -0.274 OA
ATOM      6  C   UNL     1      -2.128   0.978   0.777  0.00  0.00    +0.210 C 
ATOM      7  C   UNL     1      -3.383   1.708   1.012  0.00  0.00    +0.238 C 
ATOM      8  O   UNL     1      -3.412   2.924   0.986  0.00  0.00    -0.274 OA
ATOM      9  N   UNL     1      -4.501   0.993   1.252  0.00  0.00    -0.238 N 
ATOM     10  C   UNL     1      -4.481  -0.347   1.290  0.00  0.00    +0.319 C 
ATOM     11  O   UNL     1      -5.522  -0.933   1.516  0.00  0.00    -0.251 OA
ATOM     12  H   UNL     1      -5.338   1.460   1.405  0.00  0.00    +0.159 HD
BRANCH   3  17
ATOM     13  C   UNL     1      -3.687  -6.735   1.324  0.00  0.00    +0.044 C 
ATOM     14  C   UNL     1      -3.603  -5.232   1.262  0.00  0.00    -0.050 A 
ATOM     15  C   UNL     1      -3.763  -4.483   2.414  0.00  0.00    +0.005 A 
ATOM     16  C   UNL     1      -3.686  -3.105   2.360  0.00  0.00    +0.024 A 
ATOM     17  C   UNL     1      -3.450  -2.471   1.147  0.00  0.00    +0.045 A 
ATOM     18  C   UNL     1      -3.296  -3.225  -0.008  0.00  0.00    +0.024 A 
ATOM     19  C   UNL     1      -3.369  -4.603   0.053  0.00  0.00    +0.005 A 
ENDBRANCH   3  17
ENDBRANCH   1   6
BRANCH   1  20
ATOM     20  C   UNL     1      -0.937   3.109   0.303  0.00  0.00    -0.003 A 
ATOM     21  C   UNL     1      -0.107   3.934   1.071  0.00  0.00    +0.013 A 
ATOM     22  C   UNL     1      -0.114   5.295   0.865  0.00  0.00    +0.046 A 
ATOM     23  C   UNL     1      -0.951   5.851  -0.097  0.00  0.00    +0.120 A 
ATOM     24  C   UNL     1      -1.781   5.035  -0.858  0.00  0.00    +0.046 A 
ATOM     25  C   UNL     1      -1.778   3.673  -0.663  0.00  0.00    +0.013 A 
BRANCH  23  26
ATOM     26  O   UNL     1      -0.957   7.194  -0.293  0.00  0.00    -0.495 OA
ATOM     27  C   UNL     1      -0.080   7.973   0.523  0.00  0.00    +0.277 C 
ENDBRANCH  23  26
ENDBRANCH   1  20
BRANCH   2  28
ATOM     28  C   UNL     1       1.499   1.667   0.187  0.00  0.00    +0.146 C 
BRANCH  28  29
ATOM     29  C   UNL     1       2.669   0.686   0.286  0.00  0.00    +0.060 C 
BRANCH  29  30
ATOM     30  C   UNL     1       3.959   1.412   0.006  0.00  0.00    -0.021 A 
ATOM     31  C   UNL     1       4.593   1.486  -1.175  0.00  0.00    +0.087 A 
ATOM     32  N   UNL     1       5.732   2.233  -1.047  0.00  0.00    -0.360 N 
ATOM     33  H   UNL     1       6.354   2.429  -1.765  0.00  0.00    +0.165 HD
ATOM     34  C   UNL     1       5.867   2.662   0.255  0.00  0.00    +0.047 A 
ATOM     35  C   UNL     1       4.762   2.166   0.971  0.00  0.00    +0.003 A 
ATOM     36  C   UNL     1       4.632   2.446   2.333  0.00  0.00    +0.010 A 
ATOM     37  C   UNL     1       5.581   3.201   2.964  0.00  0.00    +0.001 A 
ATOM     38  C   UNL     1       6.673   3.692   2.261  0.00  0.00    +0.002 A 
ATOM     39  C   UNL     1       6.820   3.428   0.917  0.00  0.00    +0.026 A 
ENDBRANCH  29  30
ENDBRANCH  28  29
ENDBRANCH   2  28
TORSDOF 7
