REMARK  Name = ZINC43221514
REMARK  8 active torsions:
REMARK  status: ('A' for Active; 'I' for Inactive)
REMARK    1  A    between atoms: C_1  and  C_2
REMARK    2  A    between atoms: C_7  and  N_8
REMARK    3  A    between atoms: C_13  and  C_30
REMARK    4  A    between atoms: C_16  and  C_21
REMARK    5  A    between atoms: C_16  and  C_27
REMARK    6  A    between atoms: C_34  and  O_37
REMARK    7  A    between atoms: C_35  and  O_36
REMARK    8  A    between atoms: O_37  and  C_38
REMARK                            x       y       z     vdW  Elec       q    Type
REMARK                         _______ _______ _______ _____ _____    ______ ____
ROOT
ATOM      1  N   UNL     1       0.429   0.054   2.380  0.00  0.00    -0.210 N 
ATOM      2  C   UNL     1      -0.792   0.340   2.939  0.00  0.00    +0.229 C 
ATOM      3  O   UNL     1      -1.875  -0.094   2.611  0.00  0.00    -0.275 OA
ATOM      4  C   UNL     1      -0.501   1.268   4.004  0.00  0.00    +0.078 C 
ATOM      5  C   UNL     1      -1.087   1.786   5.252  0.00  0.00    -0.023 C 
ATOM      6  N   UNL     1       0.061   2.556   5.844  0.00  0.00    +0.398 N 
ATOM      7  C   UNL     1       1.325   2.004   5.269  0.00  0.00    +0.074 C 
ATOM      8  C   UNL     1       0.895   0.735   4.517  0.00  0.00    +0.090 C 
ATOM      9  C   UNL     1       1.475   0.470   3.155  0.00  0.00    +0.229 C 
ATOM     10  O   UNL     1       2.631   0.601   2.816  0.00  0.00    -0.275 OA
ATOM     11  H   UNL     1      -0.023   3.533   5.606  0.00  0.00    -0.083 HD
ATOM     12  H   UNL     1       0.066   2.446   6.847  0.00  0.00    -0.083 HD
ENDROOT
BRANCH   1  19
ATOM     13  C   UNL     1       0.571   1.643   0.023  0.00  0.00    +0.045 C 
ATOM     14  C   UNL     1       0.660   0.139  -0.024  0.00  0.00    -0.029 A 
ATOM     15  C   UNL     1       0.821  -0.506  -1.235  0.00  0.00    +0.005 A 
ATOM     16  C   UNL     1       0.903  -1.886  -1.279  0.00  0.00    +0.000 A 
ATOM     17  C   UNL     1       0.824  -2.623  -0.112  0.00  0.00    +0.002 A 
ATOM     18  C   UNL     1       0.664  -1.984   1.102  0.00  0.00    +0.024 A 
ATOM     19  C   UNL     1       0.586  -0.598   1.149  0.00  0.00    +0.047 A 
ENDBRANCH   1  19
BRANCH   7  20
ATOM     20  C   UNL     1       1.954   3.005   4.335  0.00  0.00    -0.047 A 
ATOM     21  C   UNL     1       3.303   2.925   4.043  0.00  0.00    +0.003 A 
ATOM     22  C   UNL     1       3.880   3.843   3.186  0.00  0.00    +0.000 A 
ATOM     23  C   UNL     1       3.109   4.842   2.622  0.00  0.00    +0.000 A 
ATOM     24  C   UNL     1       1.760   4.922   2.913  0.00  0.00    +0.000 A 
ATOM     25  C   UNL     1       1.182   4.000   3.767  0.00  0.00    +0.003 A 
ENDBRANCH   7  20
BRANCH   5  26
ATOM     26  C   UNL     1      -2.252   2.697   4.962  0.00  0.00    -0.015 A 
ATOM     27  C   UNL     1      -2.444   3.189   3.683  0.00  0.00    +0.006 A 
ATOM     28  C   UNL     1      -3.511   4.024   3.414  0.00  0.00    +0.004 A 
ATOM     29  C   UNL     1      -4.392   4.372   4.421  0.00  0.00    +0.049 A 
ATOM     30  C   UNL     1      -4.206   3.884   5.704  0.00  0.00    +0.161 A 
ATOM     31  C   UNL     1      -3.135   3.037   5.974  0.00  0.00    +0.160 A 
BRANCH  31  32
ATOM     32  O   UNL     1      -2.951   2.550   7.230  0.00  0.00    -0.503 OA
ATOM     33  H   UNL     1      -2.399   3.111   7.793  0.00  0.00    +0.292 HD
ENDBRANCH  31  32
BRANCH  30  34
ATOM     34  O   UNL     1      -5.072   4.225   6.695  0.00  0.00    -0.491 OA
ATOM     35  C   UNL     1      -6.152   5.093   6.344  0.00  0.00    +0.277 C 
ENDBRANCH  30  34
ENDBRANCH   5  26
BRANCH   7  36
ATOM     36  C   UNL     1       2.285   1.642   6.372  0.00  0.00    +0.350 C 
ATOM     37  O   UNL     1       1.981   1.843   7.536  0.00  0.00    -0.248 OA
ATOM     38  O   UNL     1       3.367   1.149   6.102  0.00  0.00    -0.248 OA
ENDBRANCH   7  36
TORSDOF 6
