REMARK  Name = ZINC35315396
REMARK  8 active torsions:
REMARK  status: ('A' for Active; 'I' for Inactive)
REMARK    1  A    between atoms: C_1  and  O_2
REMARK    2  A    between atoms: O_2  and  C_3
REMARK    3  A    between atoms: C_10  and  C_15
REMARK    4  A    between atoms: C_19  and  O_36
REMARK    5  A    between atoms: C_20  and  O_34
REMARK    6  A    between atoms: C_26  and  C_28
REMARK    7  A    between atoms: O_34  and  C_35
REMARK    8  A    between atoms: O_36  and  C_37
REMARK                            x       y       z     vdW  Elec       q    Type
REMARK                         _______ _______ _______ _____ _____    ______ ____
ROOT
ATOM      1  C   UNL     1      -3.710  -6.311   0.178  0.00  0.00    +0.143 C 
ATOM      2  C   UNL     1      -4.148  -7.098  -1.031  0.00  0.00    -0.016 A 
ATOM      3  C   UNL     1      -3.674  -6.694  -2.272  0.00  0.00    +0.055 A 
ATOM      4  C   UNL     1      -4.030  -7.379  -3.418  0.00  0.00    +0.162 A 
ATOM      5  C   UNL     1      -4.871  -8.485  -3.324  0.00  0.00    +0.162 A 
ATOM      6  C   UNL     1      -5.344  -8.881  -2.087  0.00  0.00    +0.053 A 
ATOM      7  C   UNL     1      -4.988  -8.185  -0.937  0.00  0.00    -0.037 A 
ATOM      8  C   UNL     1      -5.565  -8.661   0.371  0.00  0.00    +0.054 C 
ATOM      9  C   UNL     1      -4.743  -8.142   1.549  0.00  0.00    +0.113 C 
ATOM     10  N   UNL     1      -4.513  -6.703   1.341  0.00  0.00    -0.286 N 
ATOM     11  C   UNL     1      -5.019  -5.784   2.186  0.00  0.00    +0.247 C 
ATOM     12  O   UNL     1      -4.719  -4.613   2.061  0.00  0.00    -0.270 OA
ENDROOT
BRANCH   1  20
ATOM     13  C   UNL     1      -2.196  -0.368  -0.729  0.00  0.00    +0.121 A 
ATOM     14  C   UNL     1      -3.499   0.093  -0.903  0.00  0.00    +0.047 A 
ATOM     15  C   UNL     1      -4.566  -0.774  -0.831  0.00  0.00    +0.030 A 
ATOM     16  C   UNL     1      -4.348  -2.125  -0.584  0.00  0.00    +0.049 A 
ATOM     17  C   UNL     1      -3.033  -2.596  -0.408  0.00  0.00    +0.002 A 
ATOM     18  C   UNL     1      -1.957  -1.706  -0.488  0.00  0.00    +0.055 A 
ATOM     19  C   UNL     1      -2.818  -4.021  -0.148  0.00  0.00    +0.021 A 
ATOM     20  C   UNL     1      -3.897  -4.839  -0.086  0.00  0.00    +0.042 A 
ATOM     21  C   UNL     1      -5.196  -4.317  -0.270  0.00  0.00    +0.254 A 
ATOM     22  O   UNL     1      -6.152  -5.071  -0.211  0.00  0.00    -0.268 OA
ATOM     23  N   UNL     1      -5.404  -3.011  -0.509  0.00  0.00    -0.322 N 
ATOM     24  H   UNL     1      -6.310  -2.686  -0.630  0.00  0.00    +0.169 HD
BRANCH  13  26
ATOM     25  C   UNL     1      -1.472   1.873  -1.055  0.00  0.00    +0.277 C 
ATOM     26  O   UNL     1      -1.155   0.503  -0.803  0.00  0.00    -0.495 OA
ENDBRANCH  13  26
ENDBRANCH   1  20
BRANCH  11  27
ATOM     27  C   UNL     1      -5.943  -6.200   3.267  0.00  0.00    +0.040 A 
ATOM     28  C   UNL     1      -5.853  -5.638   4.545  0.00  0.00    +0.033 A 
ATOM     29  C   UNL     1      -6.735  -6.055   5.523  0.00  0.00    +0.111 A 
ATOM     30  N   UNL     1      -7.649  -6.969   5.266  0.00  0.00    -0.263 NA
ATOM     31  C   UNL     1      -7.767  -7.524   4.076  0.00  0.00    +0.111 A 
ATOM     32  C   UNL     1      -6.931  -7.162   3.038  0.00  0.00    +0.033 A 
ENDBRANCH  11  27
BRANCH   5  33
ATOM     33  O   UNL     1      -5.226  -9.171  -4.443  0.00  0.00    -0.491 OA
ATOM     34  C   UNL     1      -6.091 -10.295  -4.268  0.00  0.00    +0.277 C 
ENDBRANCH   5  33
BRANCH   4  35
ATOM     35  O   UNL     1      -3.563  -6.976  -4.630  0.00  0.00    -0.491 OA
ATOM     36  C   UNL     1      -2.706  -5.833  -4.648  0.00  0.00    +0.277 C 
ENDBRANCH   4  35
TORSDOF 5
