REMARK  Name = ZINC20561900
REMARK  13 active torsions:
REMARK  status: ('A' for Active; 'I' for Inactive)
REMARK    1  A    between atoms: C_1  and  C_2
REMARK    2  A    between atoms: C_7  and  C_20
REMARK    3  A    between atoms: C_9  and  C_13
REMARK    4  A    between atoms: C_10  and  C_12
REMARK    5  A    between atoms: C_13  and  O_15
REMARK    6  A    between atoms: O_15  and  C_16
REMARK    7  A    between atoms: C_16  and  C_17
REMARK    8  A    between atoms: C_17  and  O_18
REMARK    9  A    between atoms: O_18  and  C_19
REMARK   10  A    between atoms: C_23  and  C_26
REMARK   11  A    between atoms: C_34  and  C_36
REMARK   12  A    between atoms: C_36  and  O_38
REMARK   13  A    between atoms: O_38  and  C_39
REMARK                            x       y       z     vdW  Elec       q    Type
REMARK                         _______ _______ _______ _____ _____    ______ ____
ROOT
ATOM      1  C   UNL     1       0.471   5.717  -3.431  0.00  0.00    +0.009 C 
ATOM      2  C   UNL     1       1.911   6.206  -3.599  0.00  0.00    +0.013 C 
ATOM      3  C   UNL     1       2.327   7.012  -2.367  0.00  0.00    +0.055 C 
ATOM      4  C   UNL     1       2.271   6.132  -1.143  0.00  0.00    +0.016 C 
ATOM      5  C   UNL     1       2.504   4.806  -1.228  0.00  0.00    +0.025 C 
ATOM      6  C   UNL     1       2.452   3.933   0.001  0.00  0.00    +0.092 C 
ATOM      7  C   UNL     1       2.544   4.758   1.251  0.00  0.00    +0.065 C 
ATOM      8  C   UNL     1       2.306   6.081   1.233  0.00  0.00    +0.016 C 
ATOM      9  N   UNL     1       1.980   6.710   0.064  0.00  0.00    -0.321 N 
ATOM     10  C   UNL     1       2.398   6.876   2.510  0.00  0.00    +0.061 C 
ATOM     11  C   UNL     1       2.800   4.199  -2.462  0.00  0.00    +0.176 C 
ATOM     12  O   UNL     1       3.018   3.005  -2.502  0.00  0.00    -0.291 OA
ATOM     13  C   UNL     1       2.850   5.003  -3.733  0.00  0.00    +0.171 C 
ATOM     14  H   UNL     1       1.481   7.690   0.099  0.00  0.00    +0.152 HD
ENDROOT
BRANCH   6  15
ATOM     15  C   UNL     1       1.155   3.167   0.009  0.00  0.00    -0.035 A 
ATOM     16  C   UNL     1       1.172   1.783   0.000  0.00  0.00    +0.005 A 
ATOM     17  C   UNL     1      -0.013   1.076   0.008  0.00  0.00    +0.009 A 
ATOM     18  C   UNL     1      -1.228   1.757   0.017  0.00  0.00    -0.018 A 
ATOM     19  C   UNL     1      -1.239   3.151   0.031  0.00  0.00    +0.009 A 
ATOM     20  C   UNL     1      -0.048   3.848   0.024  0.00  0.00    +0.005 A 
BRANCH  18  21
ATOM     21  C   UNL     1      -2.505   1.002   0.019  0.00  0.00    -0.018 A 
ATOM     22  C   UNL     1      -2.494  -0.391   0.005  0.00  0.00    +0.008 A 
ATOM     23  C   UNL     1      -3.685  -1.089   0.012  0.00  0.00    +0.001 A 
ATOM     24  C   UNL     1      -4.888  -0.407   0.021  0.00  0.00    +0.000 A 
ATOM     25  C   UNL     1      -4.905   0.976   0.029  0.00  0.00    +0.001 A 
ATOM     26  C   UNL     1      -3.720   1.683   0.028  0.00  0.00    +0.008 A 
ENDBRANCH  18  21
ENDBRANCH   6  15
BRANCH   7  27
ATOM     27  C   UNL     1       2.888   4.132   2.471  0.00  0.00    +0.338 C 
ATOM     28  O   UNL     1       2.966   4.790   3.492  0.00  0.00    -0.245 OA
BRANCH  27  29
ATOM     29  O   UNL     1       3.130   2.804   2.504  0.00  0.00    -0.459 OA
BRANCH  29  30
ATOM     30  C   UNL     1       3.471   2.238   3.771  0.00  0.00    +0.260 C 
BRANCH  30  31
ATOM     31  C   UNL     1       3.707   0.735   3.610  0.00  0.00    +0.200 C 
BRANCH  31  32
ATOM     32  O   UNL     1       4.849   0.518   2.779  0.00  0.00    -0.380 OA
ATOM     33  C   UNL     1       5.158  -0.861   2.564  0.00  0.00    +0.194 C 
ENDBRANCH  31  32
ENDBRANCH  30  31
ENDBRANCH  29  30
ENDBRANCH  27  29
ENDBRANCH   7  27
BRANCH  13  34
ATOM     34  C   UNL     1       2.411   4.146  -4.892  0.00  0.00    +0.318 C 
ATOM     35  O   UNL     1       1.445   4.463  -5.545  0.00  0.00    -0.250 OA
BRANCH  34  36
ATOM     36  O   UNL     1       3.092   3.030  -5.198  0.00  0.00    -0.467 OA
ATOM     37  C   UNL     1       2.611   2.253  -6.327  0.00  0.00    +0.280 C 
ENDBRANCH  34  36
ENDBRANCH  13  34
TORSDOF 9
