REMARK  Name = ZINC13307471
REMARK  9 active torsions:
REMARK  status: ('A' for Active; 'I' for Inactive)
REMARK    1  A    between atoms: C_1  and  O_2
REMARK    2  A    between atoms: O_2  and  C_3
REMARK    3  A    between atoms: C_3  and  C_5
REMARK    4  A    between atoms: C_5  and  C_7
REMARK    5  A    between atoms: C_5  and  N_18
REMARK    6  A    between atoms: C_7  and  C_8
REMARK    7  A    between atoms: N_18  and  S_19
REMARK    8  A    between atoms: S_19  and  C_22
REMARK    9  A    between atoms: C_26  and  C_28
REMARK                            x       y       z     vdW  Elec       q    Type
REMARK                         _______ _______ _______ _____ _____    ______ ____
ROOT
ATOM      1  C   UNL     1       4.175   0.620   1.402  0.00  0.00    +0.189 C 
ENDROOT
BRANCH   1   2
ATOM      2  C   UNL     1       5.681   0.677   1.378  0.00  0.00    +0.326 C 
ATOM      3  O   UNL     1       6.327  -0.177   1.938  0.00  0.00    -0.249 OA
BRANCH   2   5
ATOM      4  C   UNL     1       7.757   1.667   0.753  0.00  0.00    +0.280 C 
ATOM      5  O   UNL     1       6.305   1.676   0.734  0.00  0.00    -0.467 OA
ENDBRANCH   2   5
ENDBRANCH   1   2
BRANCH   1   6
ATOM      6  N   UNL     1       3.743  -0.556   2.161  0.00  0.00    -0.176 NA
ATOM      7  H   UNL     1       3.676  -1.419   1.723  0.00  0.00    +0.149 HD
BRANCH   6   8
ATOM      8  S   UNL     1       3.369  -0.412   3.768  0.00  0.00    +0.059 S 
ATOM      9  O   UNL     1       2.965  -1.701   4.208  0.00  0.00    -0.153 OA
ATOM     10  O   UNL     1       4.441   0.298   4.373  0.00  0.00    -0.153 OA
BRANCH   8  11
ATOM     11  C   UNL     1       1.950   0.626   3.881  0.00  0.00    +0.106 A 
ATOM     12  C   UNL     1       2.105   1.996   4.011  0.00  0.00    +0.029 A 
ATOM     13  C   UNL     1       0.997   2.819   4.095  0.00  0.00    +0.018 A 
ATOM     14  C   UNL     1      -0.274   2.277   4.061  0.00  0.00    +0.032 A 
ATOM     15  C   UNL     1      -0.437   0.895   3.937  0.00  0.00    +0.079 A 
ATOM     16  C   UNL     1       0.688   0.072   3.847  0.00  0.00    +0.044 A 
ATOM     17 BR   UNL     1      -1.788   3.404   4.183  0.00  0.00    -0.049 Br
BRANCH  15  18
ATOM     18  C   UNL     1      -1.791   0.309   3.900  0.00  0.00    +0.388 C 
ATOM     19  O   UNL     1      -2.767   1.028   3.978  0.00  0.00    -0.241 OA
ATOM     20  O   UNL     1      -1.945  -1.024   3.779  0.00  0.00    -0.241 OA
ENDBRANCH  15  18
ENDBRANCH   8  11
ENDBRANCH   6   8
ENDBRANCH   1   6
BRANCH   1  21
ATOM     21  C   UNL     1       3.646   0.524  -0.031  0.00  0.00    +0.069 C 
BRANCH  21  22
ATOM     22  C   UNL     1       2.140   0.591  -0.015  0.00  0.00    -0.020 A 
ATOM     23  C   UNL     1       1.295  -0.452  -0.013  0.00  0.00    +0.087 A 
ATOM     24  N   UNL     1       0.002  -0.004   0.002  0.00  0.00    -0.360 N 
ATOM     25  H   UNL     1      -0.784  -0.572   0.006  0.00  0.00    +0.165 HD
ATOM     26  C   UNL     1      -0.017   1.373   0.010  0.00  0.00    +0.047 A 
ATOM     27  C   UNL     1       1.322   1.806  -0.001  0.00  0.00    +0.003 A 
ATOM     28  C   UNL     1       1.612   3.171   0.004  0.00  0.00    +0.010 A 
ATOM     29  C   UNL     1       0.593   4.082   0.019  0.00  0.00    +0.001 A 
ATOM     30  C   UNL     1      -0.729   3.659   0.029  0.00  0.00    +0.002 A 
ATOM     31  C   UNL     1      -1.038   2.317   0.029  0.00  0.00    +0.026 A 
ENDBRANCH  21  22
ENDBRANCH   1  21
TORSDOF 8
