REMARK  Name = ZINC06615048
REMARK  4 active torsions:
REMARK  status: ('A' for Active; 'I' for Inactive)
REMARK    1  A    between atoms: C_3  and  O_20
REMARK    2  A    between atoms: C_4  and  C_8
REMARK    3  A    between atoms: N_9  and  N_10
REMARK    4  A    between atoms: C_14  and  N_17
REMARK                            x       y       z     vdW  Elec       q    Type
REMARK                         _______ _______ _______ _____ _____    ______ ____
ROOT
ATOM      1  C   UNL     1       3.692  -0.690  -0.037  0.00  0.00    +0.142 C 
ATOM      2  N   UNL     1       4.807  -0.025  -0.045  0.00  0.00    -0.189 NA
ENDROOT
BRANCH   2   3
ATOM      3  N   UNL     1       6.030  -0.708  -0.061  0.00  0.00    -0.221 N 
ATOM      4  C   UNL     1       7.223   0.004  -0.069  0.00  0.00    +0.138 A 
ATOM      5  C   UNL     1       8.435  -0.681  -0.090  0.00  0.00    +0.047 A 
ATOM      6  C   UNL     1       9.614   0.041  -0.099  0.00  0.00    +0.037 A 
ATOM      7  C   UNL     1       9.544   1.428  -0.085  0.00  0.00    +0.144 A 
ATOM      8  C   UNL     1       8.307   2.042  -0.064  0.00  0.00    +0.145 A 
ATOM      9  N   UNL     1       7.197   1.328  -0.061  0.00  0.00    -0.237 NA
ATOM     10  H   UNL     1       6.044  -1.678  -0.066  0.00  0.00    +0.176 HD
BRANCH   7  11
ATOM     11  N   UNL     1      10.781   2.240  -0.093  0.00  0.00    +0.058 N 
ATOM     12  O   UNL     1      11.861   1.696  -0.111  0.00  0.00    -0.126 OA
ATOM     13  O   UNL     1      10.713   3.446  -0.081  0.00  0.00    -0.126 OA
ENDBRANCH   7  11
ENDBRANCH   2   3
BRANCH   1  17
ATOM     14  C   UNL     1      -0.017   1.381   0.010  0.00  0.00    +0.019 A 
ATOM     15  C   UNL     1       1.167   2.096   0.002  0.00  0.00    +0.047 A 
ATOM     16  C   UNL     1       2.381   1.430  -0.013  0.00  0.00    +0.126 A 
ATOM     17  C   UNL     1       2.405   0.028  -0.021  0.00  0.00    +0.037 A 
ATOM     18  C   UNL     1       1.204  -0.683  -0.013  0.00  0.00    +0.028 A 
ATOM     19  C   UNL     1       0.002  -0.004   0.002  0.00  0.00    +0.019 A 
ATOM     20 BR   UNL     1      -1.625  -0.968   0.012  0.00  0.00    -0.050 Br
BRANCH  16  21
ATOM     21  O   UNL     1       3.543   2.132  -0.021  0.00  0.00    -0.506 OA
ATOM     22  H   UNL     1       3.889   2.331   0.860  0.00  0.00    +0.292 HD
ENDBRANCH  16  21
ENDBRANCH   1  17
TORSDOF 4
