REMARK  Name = ZINC21911486
REMARK  5 active torsions:
REMARK  status: ('A' for Active; 'I' for Inactive)
REMARK    1  A    between atoms: C_1  and  C_2
REMARK    2  A    between atoms: C_2  and  C_4
REMARK    3  A    between atoms: C_2  and  N_11
REMARK    4  A    between atoms: C_12  and  C_14
REMARK    5  A    between atoms: N_20  and  C_21
REMARK                            x       y       z     vdW  Elec       q    Type
REMARK                         _______ _______ _______ _____ _____    ______ ____
ROOT
ATOM      1  C   UNL     1       3.260   6.638  -2.535  0.00  0.00    +0.127 A 
ATOM      2  C   UNL     1       2.120   7.303  -2.832  0.00  0.00    +0.116 A 
ATOM      3  N   UNL     1       2.452   8.379  -3.610  0.00  0.00    -0.339 N 
ATOM      4  H   UNL     1       1.668   9.066  -3.962  0.00  0.00    +0.167 HD
ATOM      5  C   UNL     1       3.784   8.379  -3.803  0.00  0.00    +0.163 A 
ATOM      6  S   UNL     1       4.662   9.530  -4.718  0.00  0.00    -0.013 S 
ATOM      7  N   UNL     1       4.311   7.322  -3.155  0.00  0.00    -0.284 N 
ENDROOT
BRANCH   7   8
ATOM      8  C   UNL     1       5.667   6.971  -3.111  0.00  0.00    +0.049 A 
ATOM      9  C   UNL     1       6.372   7.072  -1.919  0.00  0.00    +0.029 A 
ATOM     10  C   UNL     1       7.707   6.720  -1.876  0.00  0.00    +0.040 A 
ATOM     11  C   UNL     1       8.345   6.278  -3.022  0.00  0.00    +0.124 A 
ATOM     12  C   UNL     1       7.645   6.181  -4.213  0.00  0.00    +0.040 A 
ATOM     13  C   UNL     1       6.308   6.527  -4.259  0.00  0.00    +0.029 A 
ATOM     14  F   UNL     1       9.652   5.939  -2.979  0.00  0.00    -0.205 F 
ENDBRANCH   7   8
BRANCH   1  16
ATOM     15  N   UNL     1       2.261   4.814  -1.264  0.00  0.00    -0.304 N 
ATOM     16  C   UNL     1       3.373   5.424  -1.721  0.00  0.00    +0.263 C 
ATOM     17  O   UNL     1       4.470   4.967  -1.458  0.00  0.00    -0.269 OA
ATOM     18  H   UNL     1       1.274   5.271  -1.432  0.00  0.00    +0.150 HD
BRANCH  15  20
ATOM     19  C   UNL     1       2.648   3.816   0.935  0.00  0.00    +0.033 C 
ATOM     20  C   UNL     1       2.367   3.542  -0.544  0.00  0.00    +0.100 C 
BRANCH  20  21
ATOM     21  C   UNL     1       1.073   2.780  -0.678  0.00  0.00    -0.026 A 
ATOM     22  C   UNL     1       1.095   1.411  -0.870  0.00  0.00    +0.005 A 
ATOM     23  C   UNL     1      -0.091   0.712  -0.992  0.00  0.00    +0.002 A 
ATOM     24  C   UNL     1      -1.299   1.381  -0.927  0.00  0.00    +0.020 A 
ATOM     25  C   UNL     1      -1.321   2.751  -0.731  0.00  0.00    +0.041 A 
ATOM     26  C   UNL     1      -0.133   3.450  -0.608  0.00  0.00    +0.025 A 
ATOM     27 CL   UNL     1      -2.837   3.591  -0.643  0.00  0.00    -0.084 Cl
ENDBRANCH  20  21
ENDBRANCH  15  20
ENDBRANCH   1  16
TORSDOF 4
