REMARK  Name = ZINC35450619
REMARK  9 active torsions:
REMARK  status: ('A' for Active; 'I' for Inactive)
REMARK    1  A    between atoms: C_1  and  C_2
REMARK    2  A    between atoms: C_2  and  C_3
REMARK    3  A    between atoms: C_2  and  C_4
REMARK    4  A    between atoms: C_4  and  C_5
REMARK    5  A    between atoms: C_5  and  S_6
REMARK    6  A    between atoms: S_6  and  C_7
REMARK    7  A    between atoms: C_14  and  C_26
REMARK    8  A    between atoms: C_20  and  C_24
REMARK    9  A    between atoms: C_20  and  C_25
REMARK                            x       y       z     vdW  Elec       q    Type
REMARK                         _______ _______ _______ _____ _____    ______ ____
ROOT
ATOM      1  C   UNL     1      -2.929  -4.430  -0.269  0.00  0.00    +0.171 A 
ATOM      2  N   UNL     1      -1.719  -4.943  -0.356  0.00  0.00    -0.208 NA
ATOM      3  C   UNL     1      -1.536  -6.262  -0.479  0.00  0.00    +0.135 A 
ATOM      4  C   UNL     1      -2.630  -7.109  -0.519  0.00  0.00    +0.069 A 
ATOM      5  C   UNL     1      -3.913  -6.559  -0.423  0.00  0.00    +0.258 A 
ATOM      6  O   UNL     1      -4.901  -7.276  -0.452  0.00  0.00    -0.267 OA
ATOM      7  N   UNL     1      -4.038  -5.221  -0.293  0.00  0.00    -0.302 N 
ATOM      8  C   UNL     1      -2.449  -8.590  -0.665  0.00  0.00    +0.093 C 
ATOM      9  C   UNL     1      -1.040  -9.007  -0.325  0.00  0.00    +0.024 C 
ATOM     10  C   UNL     1      -0.033  -8.110  -0.299  0.00  0.00    +0.017 C 
ATOM     11  N   UNL     1      -0.261  -6.787  -0.565  0.00  0.00    -0.302 N 
ATOM     12  C   UNL     1       1.380  -8.537   0.020  0.00  0.00    +0.058 C 
ATOM     13  C   UNL     1       1.352  -9.727   0.982  0.00  0.00    -0.023 C 
ATOM     14  C   UNL     1       0.563 -10.864   0.324  0.00  0.00    +0.086 C 
ATOM     15  C   UNL     1      -0.809 -10.364  -0.035  0.00  0.00    +0.162 C 
ATOM     16  O   UNL     1      -1.737 -11.147  -0.074  0.00  0.00    -0.292 OA
ATOM     17  C   UNL     1       2.781 -10.191   1.268  0.00  0.00    +0.011 C 
ATOM     18  C   UNL     1       0.671  -9.317   2.289  0.00  0.00    +0.011 C 
ATOM     19  H   UNL     1       0.479  -6.213  -0.816  0.00  0.00    +0.153 HD
ATOM     20  H   UNL     1      -4.919  -4.822  -0.222  0.00  0.00    +0.171 HD
ENDROOT
BRANCH   8  21
ATOM     21  C   UNL     1      -2.749  -8.986  -2.088  0.00  0.00    -0.021 A 
ATOM     22  C   UNL     1      -2.006  -8.453  -3.125  0.00  0.00    +0.005 A 
ATOM     23  C   UNL     1      -2.281  -8.816  -4.430  0.00  0.00    +0.000 A 
ATOM     24  C   UNL     1      -3.299  -9.711  -4.699  0.00  0.00    +0.001 A 
ATOM     25  C   UNL     1      -4.043 -10.244  -3.664  0.00  0.00    +0.015 A 
ATOM     26  C   UNL     1      -3.765  -9.885  -2.357  0.00  0.00    +0.022 A 
ATOM     27 BR   UNL     1      -4.778 -10.619  -0.938  0.00  0.00    -0.050 Br
ENDBRANCH   8  21
BRANCH   1  28
ATOM     28  S   UNL     1      -3.118  -2.686  -0.108  0.00  0.00    -0.088 S 
BRANCH  28  29
ATOM     29  C   UNL     1      -1.416  -2.058  -0.121  0.00  0.00    +0.077 C 
BRANCH  29  30
ATOM     30  C   UNL     1      -1.433  -0.534   0.013  0.00  0.00    +0.014 C 
BRANCH  30  32
ATOM     31  C   UNL     1      -0.019   1.526   0.010  0.00  0.00    +0.007 C 
ATOM     32  C   UNL     1       0.002  -0.004   0.002  0.00  0.00    -0.016 C 
ATOM     33  C   UNL     1       0.742  -0.511   1.242  0.00  0.00    +0.007 C 
ENDBRANCH  30  32
ENDBRANCH  29  30
ENDBRANCH  28  29
ENDBRANCH   1  28
TORSDOF 5
