REMARK  Name = ZINC08451279
REMARK  5 active torsions:
REMARK  status: ('A' for Active; 'I' for Inactive)
REMARK    1  A    between atoms: C_1  and  C_2
REMARK    2  A    between atoms: C_4  and  C_27
REMARK    3  A    between atoms: C_11  and  C_19
REMARK    4  A    between atoms: C_13  and  C_17
REMARK    5  A    between atoms: C_14  and  N_16
REMARK                            x       y       z     vdW  Elec       q    Type
REMARK                         _______ _______ _______ _____ _____    ______ ____
ROOT
ATOM      1  C   UNL     1      -4.074   2.025  -0.365  0.00  0.00    +0.044 C 
ATOM      2  C   UNL     1      -3.807   3.481  -0.645  0.00  0.00    -0.036 A 
ATOM      3  C   UNL     1      -4.821   4.364  -0.971  0.00  0.00    +0.027 A 
ATOM      4  C   UNL     1      -4.576   5.701  -1.228  0.00  0.00    +0.040 A 
ATOM      5  N   UNL     1      -3.354   6.219  -1.180  0.00  0.00    -0.245 NA
ATOM      6  C   UNL     1      -2.361   5.416  -0.875  0.00  0.00    +0.113 A 
ATOM      7  C   UNL     1      -2.502   4.030  -0.594  0.00  0.00    +0.053 A 
ATOM      8  C   UNL     1      -1.273   3.321  -0.278  0.00  0.00    +0.151 A 
ATOM      9  C   UNL     1      -0.128   4.048  -0.286  0.00  0.00    +0.047 A 
ATOM     10  S   UNL     1      -0.624   5.695  -0.708  0.00  0.00    -0.069 S 
ATOM     11  C   UNL     1       1.242   3.524   0.006  0.00  0.00    +0.105 C 
ATOM     12  C   UNL     1       1.173   2.014   0.002  0.00  0.00    +0.098 C 
ATOM     13  C   UNL     1      -0.017   1.369   0.010  0.00  0.00    +0.199 C 
ATOM     14  O   UNL     1      -1.213   1.976   0.019  0.00  0.00    -0.440 OA
ATOM     15  C   UNL     1      -5.735   6.600  -1.575  0.00  0.00    +0.065 C 
ENDROOT
BRANCH  11  16
ATOM     16  C   UNL     1       1.695   4.009   1.359  0.00  0.00    -0.033 A 
ATOM     17  C   UNL     1       2.854   4.754   1.473  0.00  0.00    +0.007 A 
ATOM     18  C   UNL     1       3.272   5.200   2.713  0.00  0.00    +0.040 A 
ATOM     19  C   UNL     1       2.528   4.901   3.842  0.00  0.00    +0.137 A 
ATOM     20  C   UNL     1       1.367   4.155   3.727  0.00  0.00    +0.053 A 
ATOM     21  C   UNL     1       0.948   3.715   2.484  0.00  0.00    +0.022 A 
ATOM     22 BR   UNL     1       0.349   3.745   5.267  0.00  0.00    -0.047 Br
ATOM     23  F   UNL     1       2.935   5.336   5.054  0.00  0.00    -0.204 F 
ENDBRANCH  11  16
BRANCH  13  24
ATOM     24  N   UNL     1       0.002  -0.004   0.002  0.00  0.00    -0.328 N 
ATOM     25  H   UNL     1       0.849  -0.478  -0.009  0.00  0.00    +0.145 HD
ATOM     26  H   UNL     1      -0.831  -0.500   0.007  0.00  0.00    +0.145 HD
ENDBRANCH  13  24
BRANCH  12  27
ATOM     27  C   UNL     1       2.386   1.254  -0.011  0.00  0.00    +0.101 C 
ATOM     28  N   UNL     1       3.349   0.651  -0.021  0.00  0.00    -0.191 NA
ENDBRANCH  12  27
TORSDOF 3
