REMARK  Name = ZINC39837470
REMARK  5 active torsions:
REMARK  status: ('A' for Active; 'I' for Inactive)
REMARK    1  A    between atoms: C_1  and  C_2
REMARK    2  A    between atoms: C_7  and  C_11
REMARK    3  A    between atoms: C_15  and  S_17
REMARK    4  A    between atoms: S_17  and  N_20
REMARK    5  A    between atoms: C_23  and  C_26
REMARK                            x       y       z     vdW  Elec       q    Type
REMARK                         _______ _______ _______ _____ _____    ______ ____
ROOT
ATOM      1  C   UNL     1       0.086  -5.490   2.352  0.00  0.00    +0.004 A 
ATOM      2  C   UNL     1       0.086  -5.509   3.746  0.00  0.00    +0.010 A 
ATOM      3  C   UNL     1       0.105  -6.715   4.417  0.00  0.00    +0.003 A 
ATOM      4  C   UNL     1       0.123  -7.903   3.708  0.00  0.00    +0.028 A 
ATOM      5  C   UNL     1       0.123  -7.890   2.325  0.00  0.00    +0.106 A 
ATOM      6  C   UNL     1       0.099  -6.689   1.644  0.00  0.00    +0.038 A 
ENDROOT
BRANCH   1  13
ATOM      7  C   UNL     1      -0.018   1.503   0.010  0.00  0.00    +0.045 C 
ATOM      8  C   UNL     1       0.002  -0.004   0.002  0.00  0.00    -0.034 A 
ATOM      9  C   UNL     1       0.006  -0.697  -1.220  0.00  0.00    +0.008 A 
ATOM     10  C   UNL     1       0.024  -2.057  -1.224  0.00  0.00    +0.047 A 
ATOM     11  C   UNL     1       0.039  -2.751   0.003  0.00  0.00    +0.138 A 
ATOM     12  N   UNL     1       0.058  -4.044   0.292  0.00  0.00    -0.228 NA
ATOM     13  C   UNL     1       0.066  -4.196   1.625  0.00  0.00    +0.090 A 
ATOM     14  C   UNL     1       0.052  -2.960   2.197  0.00  0.00    +0.121 A 
ATOM     15  N   UNL     1       0.035  -2.047   1.180  0.00  0.00    -0.306 N 
ATOM     16  C   UNL     1       0.022  -0.682   1.169  0.00  0.00    +0.096 A 
ENDBRANCH   1  13
BRANCH   5  17
ATOM     17  S   UNL     1       0.147  -9.408   1.431  0.00  0.00    +0.061 S 
ATOM     18  O   UNL     1       0.694  -9.117   0.152  0.00  0.00    -0.153 OA
ATOM     19  O   UNL     1       0.713 -10.381   2.299  0.00  0.00    -0.153 OA
BRANCH  17  20
ATOM     20  N   UNL     1      -1.428  -9.855   1.182  0.00  0.00    -0.177 NA
ATOM     21  C   UNL     1      -2.132 -10.693   2.162  0.00  0.00    +0.110 C 
ATOM     22  C   UNL     1      -2.715 -11.911   1.440  0.00  0.00    +0.020 C 
ATOM     23  C   UNL     1      -3.587 -11.439   0.275  0.00  0.00    -0.012 C 
ATOM     24  C   UNL     1      -2.731 -10.653  -0.720  0.00  0.00    +0.020 C 
ATOM     25  C   UNL     1      -2.149  -9.415  -0.020  0.00  0.00    +0.110 C 
ATOM     26  C   UNL     1      -4.200 -12.653  -0.428  0.00  0.00    +0.007 C 
ENDBRANCH  17  20
ENDBRANCH   5  17
TORSDOF 3
