REMARK  Name = ZINC58951410
REMARK  8 active torsions:
REMARK  status: ('A' for Active; 'I' for Inactive)
REMARK    1  A    between atoms: C_1  and  C_2
REMARK    2  A    between atoms: N_5  and  C_9
REMARK    3  A    between atoms: C_9  and  C_11
REMARK    4  A    between atoms: C_9  and  C_26
REMARK    5  A    between atoms: C_11  and  N_12
REMARK    6  A    between atoms: C_13  and  C_15
REMARK    7  A    between atoms: C_16  and  C_17
REMARK    8  A    between atoms: C_22  and  N_23
REMARK                            x       y       z     vdW  Elec       q    Type
REMARK                         _______ _______ _______ _____ _____    ______ ____
ROOT
ATOM      1  C   UNL     1      -4.039  -2.278  -1.385  0.00  0.00    +0.108 C 
ENDROOT
BRANCH   1   2
ATOM      2  C   UNL     1      -5.226  -1.854  -0.559  0.00  0.00    +0.025 A 
ATOM      3  C   UNL     1      -6.138  -2.798  -0.121  0.00  0.00    +0.129 A 
ATOM      4  C   UNL     1      -7.228  -2.407   0.638  0.00  0.00    +0.039 A 
ATOM      5  C   UNL     1      -7.405  -1.074   0.958  0.00  0.00    +0.004 A 
ATOM      6  C   UNL     1      -6.494  -0.131   0.521  0.00  0.00    +0.020 A 
ATOM      7  C   UNL     1      -5.401  -0.521  -0.232  0.00  0.00    +0.048 A 
ATOM      8 CL   UNL     1      -4.253   0.663  -0.774  0.00  0.00    -0.083 Cl
ATOM      9  F   UNL     1      -5.966  -4.101  -0.435  0.00  0.00    -0.205 F 
ENDBRANCH   1   2
BRANCH   1  13
ATOM     10  C   UNL     1      -0.415  -2.958   1.876  0.00  0.00    +0.039 C 
ATOM     11  C   UNL     1      -1.028  -1.991   0.861  0.00  0.00    +0.129 C 
ATOM     12  C   UNL     1      -2.271  -2.628   0.233  0.00  0.00    +0.116 C 
ATOM     13  N   UNL     1      -2.811  -1.728  -0.796  0.00  0.00    -0.289 NA
ATOM     14  C   UNL     1      -1.804  -1.459  -1.833  0.00  0.00    +0.113 C 
ATOM     15  C   UNL     1      -0.566  -0.833  -1.185  0.00  0.00    +0.175 C 
ATOM     16  O   UNL     1      -0.073  -1.707  -0.165  0.00  0.00    -0.374 OA
ENDBRANCH   1  13
BRANCH   1  17
ATOM     17  C   UNL     1      -3.954  -3.805  -1.408  0.00  0.00    +0.128 C 
BRANCH  17  18
ATOM     18  N   UNL     1      -2.853  -4.220  -2.281  0.00  0.00    -0.310 N 
ATOM     19  C   UNL     1      -2.472  -5.512  -2.318  0.00  0.00    +0.237 C 
ATOM     20  O   UNL     1      -3.042  -6.335  -1.627  0.00  0.00    -0.271 OA
ATOM     21  H   UNL     1      -2.398  -3.564  -2.833  0.00  0.00    +0.149 HD
BRANCH  19  22
ATOM     22  C   UNL     1      -1.371  -5.926  -3.191  0.00  0.00    +0.068 C 
ATOM     23  C   UNL     1      -0.990  -7.219  -3.228  0.00  0.00    +0.015 C 
BRANCH  23  24
ATOM     24  C   UNL     1       0.116  -7.635  -4.105  0.00  0.00    +0.005 A 
ATOM     25  C   UNL     1       0.830  -6.681  -4.837  0.00  0.00    +0.010 A 
ATOM     26  C   UNL     1       1.866  -7.079  -5.656  0.00  0.00    +0.001 A 
ATOM     27  C   UNL     1       2.199  -8.419  -5.755  0.00  0.00    +0.002 A 
ATOM     28  C   UNL     1       1.497  -9.369  -5.034  0.00  0.00    +0.033 A 
ATOM     29  C   UNL     1       0.463  -8.986  -4.206  0.00  0.00    +0.133 A 
BRANCH  29  30
ATOM     30  N   UNL     1      -0.283 -10.003  -3.431  0.00  0.00    +0.057 N 
ATOM     31  O   UNL     1      -0.629  -9.766  -2.297  0.00  0.00    -0.126 OA
ATOM     32  O   UNL     1      -0.546 -11.072  -3.933  0.00  0.00    -0.126 OA
ENDBRANCH  29  30
ENDBRANCH  23  24
ENDBRANCH  19  22
ENDBRANCH  17  18
ENDBRANCH   1  17
TORSDOF 7
