REMARK  Name = ZINC34787595
REMARK  8 active torsions:
REMARK  status: ('A' for Active; 'I' for Inactive)
REMARK    1  A    between atoms: C_1  and  C_2
REMARK    2  A    between atoms: C_5  and  N_8
REMARK    3  A    between atoms: N_8  and  N_9
REMARK    4  A    between atoms: N_9  and  N_32
REMARK    5  A    between atoms: C_12  and  C_26
REMARK    6  A    between atoms: C_20  and  C_25
REMARK    7  A    between atoms: C_22  and  C_24
REMARK    8  A    between atoms: N_32  and  C_33
REMARK                            x       y       z     vdW  Elec       q    Type
REMARK                         _______ _______ _______ _____ _____    ______ ____
ROOT
ATOM      1  N   UNL     1       0.215  -4.286   1.685  0.00  0.00    -0.151 N 
ATOM      2  C   UNL     1      -0.970  -4.530   2.356  0.00  0.00    +0.171 A 
ATOM      3  C   UNL     1      -0.979  -5.335   3.528  0.00  0.00    +0.058 A 
ATOM      4  C   UNL     1       0.128  -6.003   4.205  0.00  0.00    +0.002 A 
ATOM      5  C   UNL     1      -0.131  -6.723   5.321  0.00  0.00    +0.056 A 
ATOM      6  S   UNL     1      -1.892  -6.545   5.532  0.00  0.00    -0.076 S 
ATOM      7  C   UNL     1      -2.241  -5.517   4.130  0.00  0.00    +0.116 A 
ATOM      8  N   UNL     1      -3.330  -4.971   3.625  0.00  0.00    -0.203 NA
ATOM      9  C   UNL     1      -3.261  -4.231   2.530  0.00  0.00    +0.254 A 
ATOM     10  N   UNL     1      -2.106  -4.013   1.917  0.00  0.00    -0.192 NA
ATOM     11  N   UNL     1      -4.427  -3.663   2.014  0.00  0.00    -0.202 N 
ATOM     12  C   UNL     1      -5.676  -3.785   2.535  0.00  0.00    +0.045 A 
ATOM     13  C   UNL     1      -6.520  -3.088   1.741  0.00  0.00    +0.048 A 
ATOM     14  C   UNL     1      -5.769  -2.521   0.704  0.00  0.00    +0.061 A 
ATOM     15  N   UNL     1      -4.517  -2.860   0.869  0.00  0.00    -0.169 NA
ATOM     16  C   UNL     1      -6.311  -1.663  -0.410  0.00  0.00    +0.067 C 
ATOM     17  C   UNL     1      -6.052  -4.558   3.772  0.00  0.00    +0.066 C 
ENDROOT
BRANCH   4  18
ATOM     18  C   UNL     1       1.509  -5.896   3.679  0.00  0.00    -0.017 A 
ATOM     19  C   UNL     1       1.798  -6.310   2.379  0.00  0.00    +0.008 A 
ATOM     20  C   UNL     1       3.086  -6.208   1.895  0.00  0.00    +0.001 A 
ATOM     21  C   UNL     1       4.090  -5.695   2.697  0.00  0.00    +0.000 A 
ATOM     22  C   UNL     1       3.810  -5.284   3.988  0.00  0.00    +0.001 A 
ATOM     23  C   UNL     1       2.525  -5.376   4.481  0.00  0.00    +0.008 A 
ENDBRANCH   4  18
BRANCH   1  24
ATOM     24  N   UNL     1       0.367  -4.706   0.357  0.00  0.00    -0.246 N 
ATOM     25  H   UNL     1       0.657  -5.611   0.165  0.00  0.00    +0.172 HD
BRANCH  24  30
ATOM     26  C   UNL     1      -0.710  -1.111  -3.894  0.00  0.00    +0.044 C 
ATOM     27  C   UNL     1      -0.423  -2.066  -2.764  0.00  0.00    -0.050 A 
ATOM     28  C   UNL     1       0.101  -3.317  -3.034  0.00  0.00    +0.005 A 
ATOM     29  C   UNL     1       0.365  -4.195  -2.002  0.00  0.00    +0.025 A 
ATOM     30  C   UNL     1       0.102  -3.820  -0.690  0.00  0.00    +0.046 A 
ATOM     31  C   UNL     1      -0.425  -2.563  -0.422  0.00  0.00    +0.025 A 
ATOM     32  C   UNL     1      -0.681  -1.688  -1.459  0.00  0.00    +0.005 A 
ENDBRANCH  24  30
ENDBRANCH   1  24
BRANCH   1  33
ATOM     33  N   UNL     1       1.262  -3.618   2.334  0.00  0.00    -0.246 N 
ATOM     34  H   UNL     1       2.095  -4.082   2.513  0.00  0.00    +0.172 HD
BRANCH  33  35
ATOM     35  C   UNL     1       1.107  -2.286   2.722  0.00  0.00    +0.046 A 
ATOM     36  C   UNL     1      -0.129  -1.664   2.598  0.00  0.00    +0.024 A 
ATOM     37  C   UNL     1      -0.280  -0.346   2.984  0.00  0.00    +0.002 A 
ATOM     38  C   UNL     1       0.799   0.354   3.491  0.00  0.00    +0.000 A 
ATOM     39  C   UNL     1       2.031  -0.261   3.616  0.00  0.00    +0.002 A 
ATOM     40  C   UNL     1       2.187  -1.581   3.238  0.00  0.00    +0.024 A 
ENDBRANCH  33  35
ENDBRANCH   1  33
TORSDOF 5
