REMARK  Name = ZINC67294263
REMARK  6 active torsions:
REMARK  status: ('A' for Active; 'I' for Inactive)
REMARK    1  A    between atoms: C_1  and  C_2
REMARK    2  A    between atoms: C_9  and  C_11
REMARK    3  A    between atoms: C_16  and  O_30
REMARK    4  A    between atoms: N_21  and  C_22
REMARK    5  A    between atoms: C_25  and  O_28
REMARK    6  A    between atoms: O_28  and  C_29
REMARK                            x       y       z     vdW  Elec       q    Type
REMARK                         _______ _______ _______ _____ _____    ______ ____
ROOT
ATOM      1  C   UNL     1      -0.179  -6.280  -0.943  0.00  0.00    +0.098 A 
ATOM      2  C   UNL     1      -0.163  -7.034  -2.108  0.00  0.00    +0.030 A 
ATOM      3  C   UNL     1      -0.232  -8.446  -1.992  0.00  0.00    +0.018 A 
ATOM      4  C   UNL     1      -0.019  -9.261  -3.115  0.00  0.00    +0.015 A 
ATOM      5  C   UNL     1      -0.045 -10.618  -2.985  0.00  0.00    +0.046 A 
ATOM      6  C   UNL     1      -0.291 -11.204  -1.744  0.00  0.00    +0.120 A 
ATOM      7  C   UNL     1      -0.524 -10.415  -0.627  0.00  0.00    +0.092 A 
ATOM      8  C   UNL     1      -0.507  -9.036  -0.744  0.00  0.00    +0.141 A 
ATOM      9  O   UNL     1      -0.776  -8.256   0.333  0.00  0.00    -0.438 OA
ATOM     10  C   UNL     1      -0.226  -7.011   0.339  0.00  0.00    +0.212 A 
ATOM     11  N   UNL     1       0.241  -6.476   1.445  0.00  0.00    -0.325 N 
ATOM     12  H   UNL     1       0.723  -5.635   1.411  0.00  0.00    +0.169 HD
ENDROOT
BRANCH   1  21
ATOM     13  C   UNL     1      -0.486   1.518   0.045  0.00  0.00    +0.045 C 
ATOM     14  C   UNL     1      -0.419   0.012   0.039  0.00  0.00    -0.032 A 
ATOM     15  C   UNL     1       0.157  -0.661  -1.030  0.00  0.00    +0.008 A 
ATOM     16  C   UNL     1       0.198  -2.043  -0.995  0.00  0.00    +0.044 A 
ATOM     17  C   UNL     1      -0.336  -2.708   0.103  0.00  0.00    +0.125 A 
ATOM     18  N   UNL     1      -0.877  -2.031   1.103  0.00  0.00    -0.240 NA
ATOM     19  C   UNL     1      -0.925  -0.712   1.101  0.00  0.00    +0.116 A 
ATOM     20  N   UNL     1      -0.301  -4.100   0.151  0.00  0.00    -0.266 N 
ATOM     21  C   UNL     1      -0.143  -4.809  -0.984  0.00  0.00    +0.254 C 
ATOM     22  O   UNL     1       0.030  -4.234  -2.042  0.00  0.00    -0.270 OA
ATOM     23  H   UNL     1      -0.391  -4.558   1.001  0.00  0.00    +0.157 HD
ENDBRANCH   1  21
BRANCH  11  24
ATOM     24  C   UNL     1       0.049  -7.106   2.645  0.00  0.00    +0.042 A 
ATOM     25  C   UNL     1      -1.203  -7.638   2.963  0.00  0.00    +0.029 A 
ATOM     26  C   UNL     1      -1.393  -8.272   4.173  0.00  0.00    +0.047 A 
ATOM     27  C   UNL     1      -0.342  -8.382   5.074  0.00  0.00    +0.120 A 
ATOM     28  C   UNL     1       0.903  -7.855   4.761  0.00  0.00    +0.047 A 
ATOM     29  C   UNL     1       1.104  -7.225   3.551  0.00  0.00    +0.029 A 
BRANCH  27  30
ATOM     30  O   UNL     1      -0.534  -9.008   6.265  0.00  0.00    -0.495 OA
ATOM     31  C   UNL     1       0.590  -9.087   7.145  0.00  0.00    +0.277 C 
ENDBRANCH  27  30
ENDBRANCH  11  24
BRANCH   6  32
ATOM     32  O   UNL     1      -0.303 -12.556  -1.629  0.00  0.00    -0.507 OA
ATOM     33  H   UNL     1       0.560 -12.941  -1.420  0.00  0.00    +0.292 HD
ENDBRANCH   6  32
TORSDOF 4
