REMARK  Name = ZINC09312965
REMARK  12 active torsions:
REMARK  status: ('A' for Active; 'I' for Inactive)
REMARK    1  A    between atoms: C_1  and  C_2
REMARK    2  A    between atoms: C_2  and  N_65
REMARK    3  A    between atoms: C_3  and  C_4
REMARK    4  A    between atoms: C_3  and  N_65
REMARK    5  A    between atoms: C_5  and  C_6
REMARK    6  A    between atoms: C_5  and  N_65
REMARK    7  A    between atoms: C_6  and  C_7
REMARK    8  A    between atoms: C_7  and  N_8
REMARK    9  A    between atoms: C_9  and  C_29
REMARK   10  A    between atoms: C_12  and  C_13
REMARK   11  A    between atoms: C_12  and  O_24
REMARK   12  A    between atoms: C_20  and  C_23
REMARK                            x       y       z     vdW  Elec       q    Type
REMARK                         _______ _______ _______ _____ _____    ______ ____
ROOT
ATOM      1  N   UNL     1      -0.229   1.658   2.810  0.00  0.00    -0.284 N 
ATOM      2  C   UNL     1       0.815   1.649   1.781  0.00  0.00    +0.144 C 
ATOM      3  C   UNL     1       2.001   2.383   2.363  0.00  0.00    +0.071 C 
ATOM      4  C   UNL     1       3.215   2.618   1.747  0.00  0.00    +0.133 C 
ATOM      5  C   UNL     1       1.621   2.777   3.654  0.00  0.00    +0.249 C 
ATOM      6  O   UNL     1       2.311   3.397   4.444  0.00  0.00    -0.282 OA
ATOM      7  C   UNL     1       0.230   2.308   3.893  0.00  0.00    +0.288 C 
ATOM      8  O   UNL     1      -0.399   2.485   4.916  0.00  0.00    -0.266 OA
ENDROOT
BRANCH   4   9
ATOM      9  C   UNL     1       4.226   3.457   2.409  0.00  0.00    +0.017 A 
ATOM     10  C   UNL     1       3.871   4.703   2.942  0.00  0.00    +0.015 A 
ATOM     11  C   UNL     1       4.815   5.480   3.568  0.00  0.00    +0.046 A 
ATOM     12  C   UNL     1       6.138   5.043   3.670  0.00  0.00    +0.124 A 
ATOM     13  C   UNL     1       6.488   3.809   3.128  0.00  0.00    -0.002 A 
ATOM     14  C   UNL     1       5.553   3.019   2.508  0.00  0.00    +0.019 A 
ATOM     15  C   UNL     1       7.974   3.624   3.371  0.00  0.00    +0.083 C 
ATOM     16  C   UNL     1       8.418   5.060   3.736  0.00  0.00    +0.175 C 
ATOM     17  O   UNL     1       7.210   5.648   4.247  0.00  0.00    -0.488 OA
ATOM     18  C   UNL     1       8.903   5.810   2.494  0.00  0.00    +0.052 C 
ENDBRANCH   4   9
BRANCH   2  19
ATOM     19  C   UNL     1       0.328   2.355   0.543  0.00  0.00    -0.022 A 
ATOM     20  C   UNL     1      -0.443   3.497   0.656  0.00  0.00    +0.007 A 
ATOM     21  C   UNL     1      -0.886   4.147  -0.480  0.00  0.00    +0.015 A 
ATOM     22  C   UNL     1      -0.567   3.650  -1.730  0.00  0.00    +0.018 A 
ATOM     23  C   UNL     1       0.200   2.505  -1.844  0.00  0.00    +0.015 A 
ATOM     24  C   UNL     1       0.647   1.857  -0.707  0.00  0.00    +0.007 A 
ATOM     25 BR   UNL     1      -1.178   4.537  -3.285  0.00  0.00    -0.050 Br
ENDBRANCH   2  19
BRANCH   4  26
ATOM     26  O   UNL     1       3.474   2.078   0.537  0.00  0.00    -0.506 OA
ATOM     27  H   UNL     1       4.390   2.348   0.240  0.00  0.00    +0.292 HD
ENDBRANCH   4  26
BRANCH   1  28
ATOM     28  C   UNL     1      -1.559   1.057   2.678  0.00  0.00    +0.107 C 
BRANCH  28  29
ATOM     29  C   UNL     1      -1.513  -0.394   3.160  0.00  0.00    +0.000 C 
BRANCH  29  30
ATOM     30  C   UNL     1      -2.901  -1.022   3.022  0.00  0.00    -0.077 C 
BRANCH  30  31
ATOM     31  N   UNL     1      -2.836  -2.428   3.472  0.00  0.00    +0.379 N 
ATOM     32  H   UNL     1      -2.065  -2.899   2.983  0.00  0.00    -0.082 HD
BRANCH  31  34
ATOM     33  C   UNL     1      -3.643  -1.676   5.684  0.00  0.00    -0.017 C 
ATOM     34  C   UNL     1      -2.585  -2.482   4.928  0.00  0.00    -0.082 C 
ENDBRANCH  31  34
BRANCH  31  35
ATOM     35  C   UNL     1      -4.101  -3.121   3.152  0.00  0.00    -0.082 C 
ATOM     36  C   UNL     1      -3.886  -4.629   3.294  0.00  0.00    -0.017 C 
ENDBRANCH  31  35
ENDBRANCH  30  31
ENDBRANCH  29  30
ENDBRANCH  28  29
ENDBRANCH   1  28
TORSDOF 9
