REMARK  Name = ZINC40075804
REMARK  11 active torsions:
REMARK  status: ('A' for Active; 'I' for Inactive)
REMARK    1  A    between atoms: C_1  and  C_2
REMARK    2  A    between atoms: C_2  and  C_3
REMARK    3  A    between atoms: C_3  and  C_4
REMARK    4  A    between atoms: C_4  and  N_5
REMARK    5  A    between atoms: C_6  and  C_21
REMARK    6  A    between atoms: C_8  and  C_13
REMARK    7  A    between atoms: C_13  and  C_15
REMARK    8  A    between atoms: C_18  and  C_20
REMARK    9  A    between atoms: C_23  and  O_29
REMARK   10  A    between atoms: C_24  and  O_28
REMARK   11  A    between atoms: O_29  and  C_30
REMARK                            x       y       z     vdW  Elec       q    Type
REMARK                         _______ _______ _______ _____ _____    ______ ____
ROOT
ATOM      1  N   UNL     1       1.457  -2.797  -2.304  0.00  0.00    -0.284 N 
ATOM      2  C   UNL     1       0.782  -2.779  -3.607  0.00  0.00    +0.145 C 
ATOM      3  C   UNL     1       1.870  -2.924  -4.646  0.00  0.00    +0.079 C 
ATOM      4  C   UNL     1       3.041  -3.015  -3.975  0.00  0.00    +0.249 C 
ATOM      5  C   UNL     1       2.778  -2.930  -2.525  0.00  0.00    +0.288 C 
ATOM      6  O   UNL     1       3.628  -2.975  -1.658  0.00  0.00    -0.266 OA
ATOM      7  O   UNL     1       4.261  -3.156  -4.544  0.00  0.00    -0.282 OA
ENDROOT
BRANCH   2   8
ATOM      8  C   UNL     1      -0.187  -3.928  -3.706  0.00  0.00    -0.018 A 
ATOM      9  C   UNL     1       0.262  -5.226  -3.537  0.00  0.00    +0.055 A 
ATOM     10  C   UNL     1      -0.628  -6.284  -3.627  0.00  0.00    +0.163 A 
ATOM     11  C   UNL     1      -1.973  -6.038  -3.886  0.00  0.00    +0.173 A 
ATOM     12  C   UNL     1      -2.417  -4.736  -4.054  0.00  0.00    +0.063 A 
ATOM     13  C   UNL     1      -1.524  -3.684  -3.958  0.00  0.00    +0.025 A 
ATOM     14 BR   UNL     1      -4.243  -4.398  -4.406  0.00  0.00    -0.046 Br
BRANCH  11  15
ATOM     15  O   UNL     1      -2.850  -7.074  -3.976  0.00  0.00    -0.503 OA
ATOM     16  H   UNL     1      -3.260  -7.316  -3.135  0.00  0.00    +0.292 HD
ENDBRANCH  11  15
BRANCH  10  17
ATOM     17  O   UNL     1      -0.187  -7.560  -3.463  0.00  0.00    -0.491 OA
ATOM     18  C   UNL     1       1.181  -7.731  -3.086  0.00  0.00    +0.277 C 
ENDBRANCH  10  17
ENDBRANCH   2   8
BRANCH   3  19
ATOM     19  C   UNL     1       1.690  -2.961  -6.102  0.00  0.00    +0.230 C 
ATOM     20  O   UNL     1       2.638  -3.210  -6.827  0.00  0.00    -0.283 OA
BRANCH  19  21
ATOM     21  C   UNL     1       0.371  -2.697  -6.685  0.00  0.00    +0.175 A 
ATOM     22  C   UNL     1       0.030  -2.829  -8.014  0.00  0.00    +0.053 A 
ATOM     23  C   UNL     1      -1.324  -2.475  -8.115  0.00  0.00    +0.045 A 
ATOM     24  C   UNL     1      -1.746  -2.149  -6.872  0.00  0.00    +0.103 A 
ATOM     25  O   UNL     1      -0.726  -2.288  -6.015  0.00  0.00    -0.457 OA
ATOM     26  C   UNL     1      -3.139  -1.705  -6.510  0.00  0.00    +0.086 C 
ENDBRANCH  19  21
ENDBRANCH   3  19
BRANCH   1  27
ATOM     27  C   UNL     1       0.808  -2.685  -0.996  0.00  0.00    +0.109 C 
BRANCH  27  28
ATOM     28  C   UNL     1       0.717  -1.211  -0.596  0.00  0.00    +0.019 C 
BRANCH  28  30
ATOM     29  C   UNL     1      -0.051   0.380   1.170  0.00  0.00    +0.004 C 
ATOM     30  C   UNL     1       0.040  -1.094   0.771  0.00  0.00    -0.002 C 
ENDBRANCH  28  30
ENDBRANCH  27  28
ENDBRANCH   1  27
TORSDOF 8
