REMARK  Name = ZINC09461481
REMARK  5 active torsions:
REMARK  status: ('A' for Active; 'I' for Inactive)
REMARK    1  A    between atoms: C_1  and  C_2
REMARK    2  A    between atoms: C_2  and  N_62
REMARK    3  A    between atoms: C_12  and  C_14
REMARK    4  A    between atoms: C_17  and  S_20
REMARK    5  A    between atoms: S_20  and  C_21
REMARK                            x       y       z     vdW  Elec       q    Type
REMARK                         _______ _______ _______ _____ _____    ______ ____
ROOT
ATOM      1  C   UNL     1      10.060  -6.974   1.004  0.00  0.00    -0.073 C 
ATOM      2  C   UNL     1      10.812  -6.433  -0.215  0.00  0.00    +0.052 C 
ATOM      3  C   UNL     1       9.810  -6.102  -1.320  0.00  0.00    +0.189 C 
ATOM      4  C   UNL     1       8.991  -7.345  -1.665  0.00  0.00    +0.052 C 
ATOM      5  C   UNL     1       8.296  -7.859  -0.402  0.00  0.00    -0.073 C 
ATOM      6  N   UNL     1       8.923  -5.021  -0.884  0.00  0.00    -0.207 N 
ATOM      7  C   UNL     1       9.464  -3.673  -0.589  0.00  0.00    +0.136 C 
ATOM      8  C   UNL     1       8.205  -2.794  -0.600  0.00  0.00    +0.086 C 
ATOM      9  C   UNL     1       7.070  -3.798  -0.595  0.00  0.00    +0.068 C 
ATOM     10  N   UNL     1       7.548  -4.991  -0.738  0.00  0.00    -0.185 NA
ATOM     11  C   UNL     1      10.395  -3.332  -1.723  0.00  0.00    +0.017 A 
ATOM     12  C   UNL     1      10.794  -2.019  -1.896  0.00  0.00    +0.009 A 
ATOM     13  C   UNL     1      11.683  -1.687  -2.901  0.00  0.00    +0.001 A 
ATOM     14  C   UNL     1      12.174  -2.674  -3.735  0.00  0.00    +0.004 A 
ATOM     15  C   UNL     1      11.771  -3.982  -3.573  0.00  0.00    +0.046 A 
ATOM     16  C   UNL     1      10.867  -4.325  -2.567  0.00  0.00    +0.128 A 
ATOM     17  O   UNL     1      10.498  -5.630  -2.480  0.00  0.00    -0.467 OA
ATOM     18  N   UNL     1       9.322  -8.192   0.609  0.00  0.00    +0.380 N 
ATOM     19  H   UNL     1       9.983  -8.865   0.203  0.00  0.00    -0.082 HD
ENDROOT
BRANCH   9  20
ATOM     20  C   UNL     1       5.640  -3.465  -0.455  0.00  0.00    -0.002 A 
ATOM     21  C   UNL     1       4.680  -4.481  -0.470  0.00  0.00    +0.011 A 
ATOM     22  C   UNL     1       3.346  -4.166  -0.339  0.00  0.00    +0.016 A 
ATOM     23  C   UNL     1       2.953  -2.840  -0.190  0.00  0.00    +0.013 A 
ATOM     24  C   UNL     1       3.906  -1.826  -0.179  0.00  0.00    +0.016 A 
ATOM     25  C   UNL     1       5.242  -2.134  -0.305  0.00  0.00    +0.011 A 
BRANCH  23  26
ATOM     26  S   UNL     1       1.245  -2.442  -0.022  0.00  0.00    -0.089 S 
BRANCH  26  27
ATOM     27  C   UNL     1       1.214  -0.681  -0.030  0.00  0.00    +0.013 A 
ATOM     28  C   UNL     1       1.184   0.010  -1.236  0.00  0.00    +0.015 A 
ATOM     29  C   UNL     1       1.159   1.391  -1.238  0.00  0.00    +0.001 A 
ATOM     30  C   UNL     1       1.165   2.086  -0.043  0.00  0.00    +0.000 A 
ATOM     31  C   UNL     1       1.196   1.402   1.159  0.00  0.00    +0.001 A 
ATOM     32  C   UNL     1       1.220   0.021   1.169  0.00  0.00    +0.015 A 
ENDBRANCH  26  27
ENDBRANCH  23  26
ENDBRANCH   9  20
BRANCH  18  34
ATOM     33  C   UNL     1       7.709  -9.888   1.335  0.00  0.00    -0.017 C 
ATOM     34  C   UNL     1       8.684  -8.802   1.794  0.00  0.00    -0.082 C 
ENDBRANCH  18  34
TORSDOF 4
