REMARK  Name = ZINC64290235
REMARK  8 active torsions:
REMARK  status: ('A' for Active; 'I' for Inactive)
REMARK    1  A    between atoms: C_1  and  C_2
REMARK    2  A    between atoms: C_2  and  C_3
REMARK    3  A    between atoms: C_3  and  C_4
REMARK    4  A    between atoms: C_4  and  C_5
REMARK    5  A    between atoms: C_4  and  N_17
REMARK    6  A    between atoms: N_7  and  C_8
REMARK    7  A    between atoms: C_8  and  C_9
REMARK    8  A    between atoms: C_8  and  C_10
REMARK                            x       y       z     vdW  Elec       q    Type
REMARK                         _______ _______ _______ _____ _____    ______ ____
ROOT
ATOM      1  C   UNL     1       1.596  -2.538   2.386  0.00  0.00    +0.234 C 
ATOM      2  O   UNL     1       1.056  -2.925   3.401  0.00  0.00    -0.274 OA
ATOM      3  N   UNL     1       2.940  -2.553   2.290  0.00  0.00    -0.307 N 
ATOM      4  H   UNL     1       3.371  -2.243   1.478  0.00  0.00    +0.149 HD
ENDROOT
BRANCH   3   5
ATOM      5  C   UNL     1       3.749  -3.037   3.411  0.00  0.00    +0.100 C 
ATOM      6  C   UNL     1       3.980  -1.895   4.404  0.00  0.00    +0.033 C 
BRANCH   5   7
ATOM      7  C   UNL     1       5.077  -3.530   2.896  0.00  0.00    -0.026 A 
ATOM      8  C   UNL     1       5.733  -2.833   1.898  0.00  0.00    +0.005 A 
ATOM      9  C   UNL     1       6.951  -3.285   1.425  0.00  0.00    +0.001 A 
ATOM     10  C   UNL     1       7.513  -4.434   1.950  0.00  0.00    +0.015 A 
ATOM     11  C   UNL     1       6.857  -5.131   2.949  0.00  0.00    +0.018 A 
ATOM     12  C   UNL     1       5.641  -4.675   3.425  0.00  0.00    +0.020 A 
ATOM     13 BR   UNL     1       7.625  -6.703   3.667  0.00  0.00    -0.050 Br
ENDBRANCH   5   7
ENDBRANCH   3   5
BRANCH   1  14
ATOM     14  C   UNL     1       0.763  -2.041   1.233  0.00  0.00    +0.160 C 
BRANCH  14  15
ATOM     15  N   UNL     1      -0.605  -2.548   1.364  0.00  0.00    -0.288 N 
ATOM     16  C   UNL     1      -1.338  -2.239   2.452  0.00  0.00    +0.298 C 
ATOM     17  O   UNL     1      -0.863  -1.538   3.325  0.00  0.00    -0.253 OA
ATOM     18  N   UNL     1      -2.596  -2.706   2.572  0.00  0.00    -0.313 N 
ATOM     19  H   UNL     1      -0.984  -3.107   0.667  0.00  0.00    +0.151 HD
ATOM     20  H   UNL     1      -2.975  -3.265   1.876  0.00  0.00    +0.146 HD
ATOM     21  H   UNL     1      -3.124  -2.483   3.355  0.00  0.00    +0.146 HD
ENDBRANCH  14  15
BRANCH  14  22
ATOM     22  C   UNL     1       0.742  -0.511   1.242  0.00  0.00    +0.031 C 
BRANCH  22  24
ATOM     23  C   UNL     1      -0.019   1.526   0.010  0.00  0.00    +0.004 C 
ATOM     24  C   UNL     1       0.002  -0.004   0.002  0.00  0.00    -0.001 C 
ENDBRANCH  22  24
ENDBRANCH  14  22
ENDBRANCH   1  14
TORSDOF 6
