REMARK  Name = ZINC56494641
REMARK  3 active torsions:
REMARK  status: ('A' for Active; 'I' for Inactive)
REMARK    1  A    between atoms: C_5  and  C_6
REMARK    2  A    between atoms: C_8  and  C_11
REMARK    3  A    between atoms: C_11  and  N_12
REMARK                            x       y       z     vdW  Elec       q    Type
REMARK                         _______ _______ _______ _____ _____    ______ ____
ROOT
ATOM      1  C   UNL     1      -1.132  -0.950   0.009  0.00  0.00    +0.209 A 
ATOM      2  N   UNL     1      -1.036  -2.294   0.006  0.00  0.00    -0.190 NA
ATOM      3  C   UNL     1      -2.224  -2.826   0.013  0.00  0.00    +0.242 A 
ATOM      4  O   UNL     1      -3.132  -1.841   0.022  0.00  0.00    -0.336 OA
ATOM      5  N   UNL     1      -2.404  -0.623   0.024  0.00  0.00    -0.055 NA
ENDROOT
BRANCH   1  10
ATOM      6  C   UNL     1      -0.017   1.366   0.010  0.00  0.00    +0.034 A 
ATOM      7  C   UNL     1       1.181   2.044   0.002  0.00  0.00    +0.026 A 
ATOM      8  C   UNL     1       2.342   1.337  -0.013  0.00  0.00    +0.061 A 
ATOM      9  S   UNL     1       1.754  -0.348  -0.017  0.00  0.00    -0.092 S 
ATOM     10  C   UNL     1       0.002  -0.004   0.002  0.00  0.00    +0.061 A 
ATOM     11 BR   UNL     1       1.212   3.935   0.011  0.00  0.00    -0.050 Br
ENDBRANCH   1  10
BRANCH   3  12
ATOM     12  C   UNL     1      -2.527  -4.302   0.013  0.00  0.00    +0.184 C 
BRANCH  12  13
ATOM     13  N   UNL     1      -2.615  -4.785   1.398  0.00  0.00    -0.286 NA
ATOM     14  C   UNL     1      -1.308  -4.708   2.067  0.00  0.00    +0.113 C 
ATOM     15  C   UNL     1      -1.454  -5.163   3.521  0.00  0.00    +0.175 C 
ATOM     16  O   UNL     1      -2.006  -6.482   3.552  0.00  0.00    -0.374 OA
ATOM     17  C   UNL     1      -3.278  -6.587   2.908  0.00  0.00    +0.135 C 
ATOM     18  C   UNL     1      -3.140  -6.159   1.445  0.00  0.00    +0.086 C 
ATOM     19  C   UNL     1      -2.160  -7.092   0.730  0.00  0.00    +0.021 C 
ATOM     20  C   UNL     1      -2.675  -8.530   0.802  0.00  0.00    +0.002 C 
ATOM     21  C   UNL     1      -2.796  -8.954   2.267  0.00  0.00    +0.003 C 
ATOM     22  C   UNL     1      -3.776  -8.030   2.975  0.00  0.00    +0.033 C 
ENDBRANCH  12  13
ENDBRANCH   3  12
TORSDOF 3
