REMARK  Name = ZINC34923150
REMARK  11 active torsions:
REMARK  status: ('A' for Active; 'I' for Inactive)
REMARK    1  A    between atoms: C_1  and  C_2
REMARK    2  A    between atoms: C_2  and  C_3
REMARK    3  A    between atoms: C_4  and  C_36
REMARK    4  A    between atoms: C_5  and  C_29
REMARK    5  A    between atoms: C_8  and  C_13
REMARK    6  A    between atoms: C_14  and  N_16
REMARK    7  A    between atoms: N_16  and  C_17
REMARK    8  A    between atoms: C_17  and  C_18
REMARK    9  A    between atoms: C_18  and  C_19
REMARK   10  A    between atoms: C_36  and  O_38
REMARK   11  A    between atoms: O_38  and  C_39
REMARK                            x       y       z     vdW  Elec       q    Type
REMARK                         _______ _______ _______ _____ _____    ______ ____
ROOT
ATOM      1  C   UNL     1       0.795  -0.957  -1.261  0.00  0.00    +0.056 C 
ATOM      2  C   UNL     1       2.177  -0.947  -1.245  0.00  0.00    +0.083 C 
ATOM      3  C   UNL     1       2.898  -1.105  -2.565  0.00  0.00    +0.150 C 
ATOM      4  N   UNL     1       2.056  -1.259  -3.782  0.00  0.00    -0.267 N 
ATOM      5  C   UNL     1       2.495  -1.417  -5.081  0.00  0.00    +0.048 C 
ATOM      6  C   UNL     1       1.559  -1.541  -6.048  0.00  0.00    +0.072 C 
ATOM      7  S   UNL     1       0.046  -1.434  -5.113  0.00  0.00    -0.060 S 
ATOM      8  C   UNL     1       0.704  -1.242  -3.581  0.00  0.00    +0.166 C 
ATOM      9  N   UNL     1       0.138  -1.106  -2.399  0.00  0.00    -0.229 NA
ENDROOT
BRANCH   3  10
ATOM     10  C   UNL     1       3.778   0.103  -2.760  0.00  0.00    -0.019 A 
ATOM     11  C   UNL     1       3.212   1.330  -3.050  0.00  0.00    +0.006 A 
ATOM     12  C   UNL     1       4.017   2.439  -3.230  0.00  0.00    +0.003 A 
ATOM     13  C   UNL     1       5.390   2.321  -3.120  0.00  0.00    +0.038 A 
ATOM     14  C   UNL     1       5.958   1.093  -2.830  0.00  0.00    +0.124 A 
ATOM     15  C   UNL     1       5.149  -0.016  -2.644  0.00  0.00    +0.044 A 
ATOM     16  F   UNL     1       7.300   0.976  -2.722  0.00  0.00    -0.205 F 
ENDBRANCH   3  10
BRANCH   5  17
ATOM     17  C   UNL     1       3.929  -1.447  -5.402  0.00  0.00    +0.091 C 
ATOM     18  C   UNL     1       4.335  -1.782  -6.642  0.00  0.00    +0.239 C 
ATOM     19  O   UNL     1       3.423  -1.960  -7.628  0.00  0.00    -0.271 OA
BRANCH  18  20
ATOM     20  N   UNL     1       5.684  -1.944  -6.909  0.00  0.00    -0.311 N 
ATOM     21  H   UNL     1       6.331  -1.890  -6.188  0.00  0.00    +0.149 HD
BRANCH  20  22
ATOM     22  C   UNL     1       6.135  -2.195  -8.280  0.00  0.00    +0.109 C 
BRANCH  22  23
ATOM     23  C   UNL     1       7.643  -2.455  -8.281  0.00  0.00    +0.056 C 
BRANCH  23  24
ATOM     24  C   UNL     1       8.106  -2.714  -9.692  0.00  0.00    -0.021 A 
ATOM     25  C   UNL     1       8.253  -3.913 -10.277  0.00  0.00    +0.087 A 
ATOM     26  N   UNL     1       8.692  -3.754 -11.563  0.00  0.00    -0.360 N 
ATOM     27  H   UNL     1       8.871  -4.478 -12.184  0.00  0.00    +0.165 HD
ATOM     28  C   UNL     1       8.842  -2.415 -11.844  0.00  0.00    +0.047 A 
ATOM     29  C   UNL     1       8.476  -1.704 -10.687  0.00  0.00    +0.003 A 
ATOM     30  C   UNL     1       8.524  -0.309 -10.681  0.00  0.00    +0.010 A 
ATOM     31  C   UNL     1       8.925   0.360 -11.804  0.00  0.00    +0.001 A 
ATOM     32  C   UNL     1       9.283  -0.336 -12.949  0.00  0.00    +0.002 A 
ATOM     33  C   UNL     1       9.252  -1.714 -12.973  0.00  0.00    +0.026 A 
ENDBRANCH  23  24
ENDBRANCH  22  23
ENDBRANCH  20  22
ENDBRANCH  18  20
ENDBRANCH   5  17
BRANCH   1  35
ATOM     34  C   UNL     1      -0.127   0.683   0.355  0.00  0.00    +0.010 C 
ATOM     35  C   UNL     1       0.031  -0.804   0.029  0.00  0.00    +0.053 C 
ENDBRANCH   1  35
BRANCH   2  36
ATOM     36  C   UNL     1       2.886  -0.796  -0.047  0.00  0.00    +0.339 C 
ATOM     37  O   UNL     1       2.288  -0.560   0.989  0.00  0.00    -0.245 OA
BRANCH  36  38
ATOM     38  O   UNL     1       4.232  -0.911  -0.040  0.00  0.00    -0.465 OA
ATOM     39  C   UNL     1       4.891  -0.745   1.217  0.00  0.00    +0.280 C 
ENDBRANCH  36  38
ENDBRANCH   2  36
TORSDOF 9
