REMARK  Name = ZINC45229474
REMARK  13 active torsions:
REMARK  status: ('A' for Active; 'I' for Inactive)
REMARK    1  A    between atoms: C_1  and  C_2
REMARK    2  A    between atoms: C_2  and  C_3
REMARK    3  A    between atoms: C_3  and  C_4
REMARK    4  A    between atoms: C_4  and  C_5
REMARK    5  A    between atoms: C_5  and  C_6
REMARK    6  A    between atoms: C_6  and  C_8
REMARK    7  A    between atoms: C_6  and  C_9
REMARK    8  A    between atoms: C_9  and  C_11
REMARK    9  A    between atoms: C_9  and  C_12
REMARK   10  A    between atoms: C_14  and  O_32
REMARK   11  A    between atoms: C_19  and  C_30
REMARK   12  A    between atoms: C_19  and  C_31
REMARK   13  A    between atoms: C_21  and  C_23
REMARK                            x       y       z     vdW  Elec       q    Type
REMARK                         _______ _______ _______ _____ _____    ______ ____
ROOT
ATOM      1  C   UNL     1       3.708  -4.022  -3.611  0.00  0.00    -0.037 A 
ATOM      2  C   UNL     1       4.482  -4.356  -2.517  0.00  0.00    +0.049 A 
ATOM      3  C   UNL     1       5.778  -3.875  -2.413  0.00  0.00    +0.124 A 
ATOM      4  C   UNL     1       6.302  -3.058  -3.408  0.00  0.00    +0.043 A 
ATOM      5  C   UNL     1       5.527  -2.727  -4.504  0.00  0.00    +0.129 A 
ATOM      6  C   UNL     1       4.228  -3.216  -4.604  0.00  0.00    +0.050 A 
ATOM      7  O   UNL     1       6.002  -1.941  -5.505  0.00  0.00    -0.486 OA
ATOM      8  C   UNL     1       7.166  -1.156  -5.243  0.00  0.00    +0.106 C 
ATOM      9  C   UNL     1       8.232  -2.065  -4.617  0.00  0.00    +0.060 C 
ATOM     10  C   UNL     1       7.713  -2.548  -3.260  0.00  0.00    +0.060 C 
ATOM     11  C   UNL     1       7.696  -0.567  -6.552  0.00  0.00    +0.055 C 
ATOM     12  C   UNL     1       6.817  -0.026  -4.272  0.00  0.00    +0.055 C 
ENDROOT
BRANCH  10  13
ATOM     13  C   UNL     1       8.597  -3.659  -2.752  0.00  0.00    -0.037 A 
ATOM     14  C   UNL     1       8.753  -4.829  -3.479  0.00  0.00    +0.025 A 
ATOM     15  C   UNL     1       9.571  -5.826  -2.982  0.00  0.00    +0.133 A 
ATOM     16  N   UNL     1      10.199  -5.673  -1.832  0.00  0.00    -0.147 N 
ATOM     17  O   UNL     1      11.030  -6.716  -1.355  0.00  0.00    -0.164 OA
ATOM     18  C   UNL     1      10.074  -4.572  -1.114  0.00  0.00    +0.133 A 
ATOM     19  C   UNL     1       9.277  -3.531  -1.551  0.00  0.00    +0.025 A 
ENDBRANCH  10  13
BRANCH   1  20
ATOM     20  C   UNL     1       2.299  -4.543  -3.725  0.00  0.00    +0.019 C 
ATOM     21  C   UNL     1       2.320  -6.073  -3.733  0.00  0.00    +0.013 C 
BRANCH  20  22
ATOM     22  C   UNL     1       1.476  -4.051  -2.532  0.00  0.00    -0.007 C 
ATOM     23  C   UNL     1       0.045  -4.579  -2.647  0.00  0.00    +0.008 C 
BRANCH  22  24
ATOM     24  C   UNL     1       1.455  -2.521  -2.524  0.00  0.00    +0.004 C 
BRANCH  24  25
ATOM     25  C   UNL     1       0.739  -2.027  -1.265  0.00  0.00    +0.000 C 
BRANCH  25  26
ATOM     26  C   UNL     1       0.718  -0.497  -1.257  0.00  0.00    -0.000 C 
BRANCH  26  28
ATOM     27  C   UNL     1      -0.019   1.526   0.010  0.00  0.00    +0.004 C 
ATOM     28  C   UNL     1       0.002  -0.004   0.002  0.00  0.00    -0.003 C 
ENDBRANCH  26  28
ENDBRANCH  25  26
ENDBRANCH  24  25
ENDBRANCH  22  24
ENDBRANCH  20  22
ENDBRANCH   1  20
BRANCH   3  29
ATOM     29  O   UNL     1       6.539  -4.203  -1.336  0.00  0.00    -0.506 OA
ATOM     30  H   UNL     1       7.058  -5.011  -1.452  0.00  0.00    +0.292 HD
ENDBRANCH   3  29
TORSDOF 8
