REMARK  Name = ZINC66934285
REMARK  3 active torsions:
REMARK  status: ('A' for Active; 'I' for Inactive)
REMARK    1  A    between atoms: C_6  and  C_7
REMARK    2  A    between atoms: N_10  and  S_14
REMARK    3  A    between atoms: S_14  and  C_17
REMARK                            x       y       z     vdW  Elec       q    Type
REMARK                         _______ _______ _______ _____ _____    ______ ____
ROOT
ATOM      1  C   UNL     1      -1.293  -0.774   0.010  0.00  0.00    +0.164 C 
ATOM      2  C   UNL     1      -1.617  -1.246  -1.412  0.00  0.00    +0.146 C 
ATOM      3  N   UNL     1      -2.778  -2.149  -1.348  0.00  0.00    -0.172 NA
ATOM      4  C   UNL     1      -2.741  -3.256  -0.380  0.00  0.00    +0.137 C 
ATOM      5  C   UNL     1      -2.362  -2.686   0.992  0.00  0.00    +0.178 C 
ATOM      6  O   UNL     1      -1.167  -1.912   0.867  0.00  0.00    -0.369 OA
ENDROOT
BRANCH   1  12
ATOM      7  C   UNL     1      -0.017   1.378   0.010  0.00  0.00    +0.009 A 
ATOM      8  C   UNL     1       1.170   2.087   0.002  0.00  0.00    +0.041 A 
ATOM      9  C   UNL     1       2.379   1.413  -0.013  0.00  0.00    +0.158 A 
ATOM     10  C   UNL     1       2.397   0.026  -0.021  0.00  0.00    +0.159 A 
ATOM     11  C   UNL     1       1.208  -0.680  -0.013  0.00  0.00    +0.047 A 
ATOM     12  C   UNL     1       0.002  -0.004   0.002  0.00  0.00    -0.015 A 
ATOM     13  F   UNL     1       3.576  -0.634  -0.036  0.00  0.00    -0.202 F 
ATOM     14  F   UNL     1       3.539   2.105  -0.021  0.00  0.00    -0.202 F 
ENDBRANCH   1  12
BRANCH   3  15
ATOM     15  S   UNL     1      -4.087  -1.924  -2.337  0.00  0.00    +0.064 S 
ATOM     16  O   UNL     1      -5.194  -2.537  -1.690  0.00  0.00    -0.153 OA
ATOM     17  O   UNL     1      -4.085  -0.553  -2.708  0.00  0.00    -0.153 OA
BRANCH  15  18
ATOM     18  C   UNL     1      -3.792  -2.845  -3.809  0.00  0.00    +0.143 A 
ATOM     19  C   UNL     1      -4.608  -3.913  -4.132  0.00  0.00    +0.069 A 
ATOM     20  C   UNL     1      -4.376  -4.637  -5.289  0.00  0.00    +0.125 A 
ATOM     21  C   UNL     1      -3.327  -4.290  -6.124  0.00  0.00    +0.041 A 
ATOM     22  C   UNL     1      -2.512  -3.222  -5.802  0.00  0.00    +0.043 A 
ATOM     23  C   UNL     1      -2.747  -2.495  -4.647  0.00  0.00    +0.150 A 
ATOM     24  F   UNL     1      -1.953  -1.448  -4.334  0.00  0.00    -0.203 F 
ATOM     25  F   UNL     1      -5.173  -5.681  -5.604  0.00  0.00    -0.205 F 
ENDBRANCH  15  18
ENDBRANCH   3  15
TORSDOF 3
