REMARK  Name = ZINC20504497
REMARK  9 active torsions:
REMARK  status: ('A' for Active; 'I' for Inactive)
REMARK    1  A    between atoms: C_1  and  C_2
REMARK    2  A    between atoms: N_9  and  C_10
REMARK    3  A    between atoms: C_10  and  C_11
REMARK    4  A    between atoms: C_18  and  C_40
REMARK    5  A    between atoms: C_21  and  O_39
REMARK    6  A    between atoms: C_23  and  C_27
REMARK    7  A    between atoms: C_27  and  C_29
REMARK    8  A    between atoms: C_27  and  C_30
REMARK    9  A    between atoms: N_35  and  C_38
REMARK                            x       y       z     vdW  Elec       q    Type
REMARK                         _______ _______ _______ _____ _____    ______ ____
ROOT
ATOM      1  C   UNL     1      -0.941   4.673  -7.293  0.00  0.00    +0.014 C 
ATOM      2  C   UNL     1      -1.026   6.165  -6.965  0.00  0.00    +0.039 C 
ATOM      3  C   UNL     1      -0.751   6.986  -8.218  0.00  0.00    +0.031 A 
ATOM      4  C   UNL     1       0.024   8.098  -8.151  0.00  0.00    +0.013 A 
ATOM      5  S   UNL     1       0.033   8.668  -9.829  0.00  0.00    -0.059 S 
ATOM      6  C   UNL     1      -0.971   7.411 -10.488  0.00  0.00    +0.137 A 
ATOM      7  N   UNL     1      -1.229   6.679  -9.423  0.00  0.00    -0.340 N 
ATOM      8  N   UNL     1      -1.391   7.227 -11.795  0.00  0.00    -0.321 N 
ATOM      9  C   UNL     1       0.688   8.672  -6.950  0.00  0.00    +0.051 C 
ATOM     10  C   UNL     1       0.086   8.027  -5.686  0.00  0.00    -0.022 C 
ATOM     11  C   UNL     1       0.011   6.512  -5.889  0.00  0.00    +0.033 C 
ATOM     12  C   UNL     1      -0.429   5.828  -4.590  0.00  0.00    +0.123 C 
ATOM     13  C   UNL     1       0.535   6.171  -3.456  0.00  0.00    +0.029 C 
ATOM     14  C   UNL     1       0.524   7.687  -3.241  0.00  0.00    +0.007 C 
ATOM     15  C   UNL     1       1.022   8.359  -4.519  0.00  0.00    +0.008 C 
ATOM     16  C   UNL     1      -1.310   8.588  -5.411  0.00  0.00    +0.012 C 
ATOM     17  H   UNL     1      -2.032   6.370 -12.051  0.00  0.00    +0.148 HD
ATOM     18  H   UNL     1      -1.863   5.789  -9.553  0.00  0.00    +0.167 HD
ENDROOT
BRANCH  13  19
ATOM     19  C   UNL     1       0.088   5.468  -2.173  0.00  0.00    +0.078 C 
ATOM     20  C   UNL     1      -1.290   5.990  -1.758  0.00  0.00    +0.017 C 
BRANCH  19  21
ATOM     21  C   UNL     1       1.082   5.746  -1.075  0.00  0.00    +0.219 C 
ATOM     22  O   UNL     1       0.867   6.629  -0.272  0.00  0.00    -0.275 OA
ATOM     23  N   UNL     1       2.210   5.014  -0.985  0.00  0.00    -0.299 N 
ATOM     24  C   UNL     1       3.244   5.340   0.008  0.00  0.00    +0.123 C 
ATOM     25  C   UNL     1       3.588   4.066   0.788  0.00  0.00    +0.103 C 
ATOM     26  N   UNL     1       3.947   2.999  -0.155  0.00  0.00    -0.302 NA
ATOM     27  C   UNL     1       2.814   2.652  -1.024  0.00  0.00    +0.103 C 
ATOM     28  C   UNL     1       2.438   3.868  -1.878  0.00  0.00    +0.123 C 
ATOM     29  C   UNL     1       4.447   1.815   0.555  0.00  0.00    +0.105 C 
ENDBRANCH  19  21
ENDBRANCH  13  19
BRANCH  12  30
ATOM     30  O   UNL     1      -0.447   4.412  -4.784  0.00  0.00    -0.391 OA
ATOM     31  H   UNL     1      -0.739   3.748  -3.958  0.00  0.00    +0.210 HD
ENDBRANCH  12  30
BRANCH   8  32
ATOM     32  C   UNL     1      -0.982   8.172 -12.836  0.00  0.00    +0.138 C 
BRANCH  32  33
ATOM     33  C   UNL     1      -1.569   7.749 -14.159  0.00  0.00    -0.030 A 
ATOM     34  C   UNL     1      -0.862   6.897 -14.987  0.00  0.00    +0.005 A 
ATOM     35  C   UNL     1      -1.402   6.505 -16.198  0.00  0.00    +0.000 A 
ATOM     36  C   UNL     1      -2.644   6.973 -16.584  0.00  0.00    +0.000 A 
ATOM     37  C   UNL     1      -3.349   7.829 -15.758  0.00  0.00    +0.000 A 
ATOM     38  C   UNL     1      -2.810   8.217 -14.545  0.00  0.00    +0.005 A 
ENDBRANCH  32  33
ENDBRANCH   8  32
TORSDOF 5
