REMARK  Name = ZINC33941633
REMARK  18 active torsions:
REMARK  status: ('A' for Active; 'I' for Inactive)
REMARK    1  A    between atoms: C_1  and  C_2
REMARK    2  A    between atoms: C_2  and  N_3
REMARK    3  A    between atoms: N_3  and  C_4
REMARK    4  A    between atoms: N_3  and  C_6
REMARK    5  A    between atoms: C_4  and  C_5
REMARK    6  A    between atoms: C_6  and  C_7
REMARK    7  A    between atoms: C_7  and  C_8
REMARK    8  A    between atoms: C_8  and  C_9
REMARK    9  A    between atoms: C_9  and  C_11
REMARK   10  A    between atoms: C_9  and  N_12
REMARK   11  A    between atoms: C_13  and  C_15
REMARK   12  A    between atoms: C_15  and  C_17
REMARK   13  A    between atoms: C_15  and  S_18
REMARK   14  A    between atoms: S_18  and  C_19
REMARK   15  A    between atoms: C_25  and  C_38
REMARK   16  A    between atoms: N_29  and  C_30
REMARK   17  A    between atoms: C_30  and  C_31
REMARK   18  A    between atoms: C_34  and  C_37
REMARK                            x       y       z     vdW  Elec       q    Type
REMARK                         _______ _______ _______ _____ _____    ______ ____
ROOT
ATOM      1  C   UNL     1       5.926  -2.872   5.737  0.00  0.00    +0.212 A 
ATOM      2  N   UNL     1       6.796  -3.007   6.729  0.00  0.00    -0.201 NA
ATOM      3  C   UNL     1       8.086  -2.783   6.498  0.00  0.00    +0.165 A 
ATOM      4  C   UNL     1       8.478  -2.408   5.197  0.00  0.00    +0.138 A 
ATOM      5  C   UNL     1       9.940  -2.230   5.240  0.00  0.00    +0.029 A 
ATOM      6  C   UNL     1      10.892  -1.869   4.290  0.00  0.00    +0.015 A 
ATOM      7  C   UNL     1      12.220  -1.786   4.648  0.00  0.00    -0.050 A 
ATOM      8  C   UNL     1      12.611  -2.060   5.950  0.00  0.00    +0.005 A 
ATOM      9  C   UNL     1      11.678  -2.418   6.900  0.00  0.00    +0.027 A 
ATOM     10  C   UNL     1      10.333  -2.507   6.558  0.00  0.00    +0.053 A 
ATOM     11  N   UNL     1       9.205  -2.836   7.292  0.00  0.00    -0.319 N 
ATOM     12  C   UNL     1      13.252  -1.397   3.621  0.00  0.00    +0.044 C 
ATOM     13  N   UNL     1       7.560  -2.290   4.249  0.00  0.00    -0.143 NA
ATOM     14  N   UNL     1       6.321  -2.522   4.517  0.00  0.00    -0.122 NA
ENDROOT
BRANCH   1  15
ATOM     15  S   UNL     1       4.216  -3.169   6.040  0.00  0.00    -0.072 S 
BRANCH  15  16
ATOM     16  C   UNL     1       3.428  -2.878   4.432  0.00  0.00    +0.137 C 
ATOM     17  C   UNL     1       3.586  -1.406   4.046  0.00  0.00    +0.029 C 
BRANCH  16  19
ATOM     18  N   UNL     1       1.284  -3.571   3.412  0.00  0.00    -0.312 N 
ATOM     19  C   UNL     1       1.963  -3.219   4.522  0.00  0.00    +0.226 C 
ATOM     20  O   UNL     1       1.395  -3.176   5.592  0.00  0.00    -0.275 OA
ATOM     21  H   UNL     1       1.739  -3.605   2.556  0.00  0.00    +0.149 HD
BRANCH  18  22
ATOM     22  C   UNL     1      -0.140  -3.903   3.499  0.00  0.00    +0.070 C 
ATOM     23  C   UNL     1      -0.298  -5.375   3.886  0.00  0.00    +0.028 C 
BRANCH  22  24
ATOM     24  C   UNL     1      -0.805  -3.658   2.143  0.00  0.00    +0.020 C 
BRANCH  24  25
ATOM     25  C   UNL     1      -0.756  -2.164   1.814  0.00  0.00    -0.017 C 
BRANCH  25  26
ATOM     26  C   UNL     1      -1.421  -1.919   0.458  0.00  0.00    -0.079 C 
BRANCH  26  27
ATOM     27  N   UNL     1      -1.374  -0.485   0.142  0.00  0.00    +0.379 N 
ATOM     28  H   UNL     1      -1.792   0.039   0.895  0.00  0.00    -0.082 HD
BRANCH  27  30
ATOM     29  C   UNL     1       0.082   1.451  -0.216  0.00  0.00    -0.017 C 
ATOM     30  C   UNL     1       0.024  -0.066  -0.029  0.00  0.00    -0.082 C 
ENDBRANCH  27  30
BRANCH  27  31
ATOM     31  C   UNL     1      -2.116  -0.233  -1.101  0.00  0.00    -0.082 C 
ATOM     32  C   UNL     1      -3.600  -0.533  -0.879  0.00  0.00    -0.017 C 
ENDBRANCH  27  31
ENDBRANCH  26  27
ENDBRANCH  25  26
ENDBRANCH  24  25
ENDBRANCH  22  24
ENDBRANCH  18  22
ENDBRANCH  16  19
ENDBRANCH  15  16
ENDBRANCH   1  15
BRANCH  11  33
ATOM     33  C   UNL     1       9.206  -3.190   8.713  0.00  0.00    +0.159 C 
BRANCH  33  34
ATOM     34  C   UNL     1       9.384  -4.679   8.860  0.00  0.00    -0.028 A 
ATOM     35  C   UNL     1       8.277  -5.508   8.887  0.00  0.00    +0.005 A 
ATOM     36  C   UNL     1       8.440  -6.874   9.022  0.00  0.00    +0.004 A 
ATOM     37  C   UNL     1       9.710  -7.411   9.129  0.00  0.00    -0.050 A 
ATOM     38  C   UNL     1      10.816  -6.583   9.102  0.00  0.00    +0.004 A 
ATOM     39  C   UNL     1      10.653  -5.217   8.963  0.00  0.00    +0.005 A 
ATOM     40  C   UNL     1       9.887  -8.901   9.277  0.00  0.00    +0.044 C 
ENDBRANCH  33  34
ENDBRANCH  11  33
TORSDOF 12
