REMARK  Name = ZINC41530092
REMARK  6 active torsions:
REMARK  status: ('A' for Active; 'I' for Inactive)
REMARK    1  A    between atoms: C_1  and  C_2
REMARK    2  A    between atoms: C_2  and  C_3
REMARK    3  A    between atoms: C_2  and  C_4
REMARK    4  A    between atoms: C_2  and  C_19
REMARK    5  A    between atoms: C_4  and  N_5
REMARK    6  A    between atoms: C_6  and  C_8
REMARK                            x       y       z     vdW  Elec       q    Type
REMARK                         _______ _______ _______ _____ _____    ______ ____
ROOT
ATOM      1  N   UNL     1      -2.119  -0.061   1.218  0.00  0.00    -0.310 N 
ATOM      2  C   UNL     1      -3.403  -0.406   1.442  0.00  0.00    +0.251 C 
ATOM      3  O   UNL     1      -3.992  -1.108   0.643  0.00  0.00    -0.270 OA
ATOM      4  H   UNL     1      -1.649   0.499   1.855  0.00  0.00    +0.149 HD
ENDROOT
BRANCH   2   5
ATOM      5  C   UNL     1      -4.092   0.070   2.654  0.00  0.00    +0.122 A 
ATOM      6  C   UNL     1      -5.412  -0.273   2.914  0.00  0.00    +0.031 A 
ATOM      7  C   UNL     1      -6.018   0.248   4.086  0.00  0.00    +0.018 A 
ATOM      8  C   UNL     1      -7.272  -0.217   4.506  0.00  0.00    +0.011 A 
ATOM      9  C   UNL     1      -7.824   0.264   5.659  0.00  0.00    +0.001 A 
ATOM     10  C   UNL     1      -7.157   1.218   6.415  0.00  0.00    +0.004 A 
ATOM     11  C   UNL     1      -5.931   1.705   6.011  0.00  0.00    +0.047 A 
ATOM     12  C   UNL     1      -5.354   1.235   4.838  0.00  0.00    +0.139 A 
ATOM     13  O   UNL     1      -4.171   1.736   4.408  0.00  0.00    -0.422 OA
ATOM     14  C   UNL     1      -3.406   0.922   3.641  0.00  0.00    +0.350 A 
ATOM     15  O   UNL     1      -2.195   0.898   3.759  0.00  0.00    -0.244 OA
ENDBRANCH   2   5
BRANCH   1  16
ATOM     16  C   UNL     1      -1.433  -0.534   0.013  0.00  0.00    +0.115 C 
BRANCH  16  18
ATOM     17  C   UNL     1      -0.019   1.526   0.010  0.00  0.00    +0.017 C 
ATOM     18  C   UNL     1       0.002  -0.004   0.002  0.00  0.00    +0.008 C 
ATOM     19  C   UNL     1       0.742  -0.511   1.242  0.00  0.00    +0.017 C 
BRANCH  18  20
ATOM     20  C   UNL     1       0.707  -0.490  -1.238  0.00  0.00    -0.005 A 
ATOM     21  C   UNL     1       0.036  -1.284  -2.149  0.00  0.00    +0.007 A 
ATOM     22  C   UNL     1       0.683  -1.730  -3.286  0.00  0.00    +0.000 A 
ATOM     23  C   UNL     1       2.002  -1.382  -3.514  0.00  0.00    +0.003 A 
ATOM     24  C   UNL     1       2.675  -0.588  -2.605  0.00  0.00    +0.038 A 
ATOM     25  C   UNL     1       2.026  -0.137  -1.468  0.00  0.00    +0.127 A 
ATOM     26  F   UNL     1       2.681   0.644  -0.581  0.00  0.00    -0.205 F 
ENDBRANCH  18  20
ENDBRANCH  16  18
ENDBRANCH   1  16
TORSDOF 4
