REMARK  Name = ZINC35532410
REMARK  8 active torsions:
REMARK  status: ('A' for Active; 'I' for Inactive)
REMARK    1  A    between atoms: C_1  and  C_2
REMARK    2  A    between atoms: C_2  and  C_38
REMARK    3  A    between atoms: C_6  and  C_27
REMARK    4  A    between atoms: C_12  and  S_16
REMARK    5  A    between atoms: S_16  and  C_17
REMARK    6  A    between atoms: C_17  and  C_18
REMARK    7  A    between atoms: C_21  and  N_24
REMARK    8  A    between atoms: C_30  and  C_33
REMARK                            x       y       z     vdW  Elec       q    Type
REMARK                         _______ _______ _______ _____ _____    ______ ____
ROOT
ATOM      1  C   UNL     1      -0.019   1.526   0.010  0.00  0.00    +0.011 C 
ATOM      2  C   UNL     1       0.002  -0.004   0.002  0.00  0.00    -0.023 C 
ATOM      3  C   UNL     1      -1.431  -0.538   0.038  0.00  0.00    +0.058 C 
ATOM      4  C   UNL     1      -1.410  -2.046   0.082  0.00  0.00    +0.017 C 
ATOM      5  C   UNL     1      -0.398  -2.710   0.679  0.00  0.00    +0.024 C 
ATOM      6  C   UNL     1      -0.385  -4.217   0.735  0.00  0.00    +0.092 C 
ATOM      7  C   UNL     1      -1.325  -4.807  -0.275  0.00  0.00    +0.069 A 
ATOM      8  C   UNL     1      -1.204  -6.163  -0.649  0.00  0.00    +0.280 A 
ATOM      9  O   UNL     1      -0.331  -6.862  -0.157  0.00  0.00    -0.265 OA
ATOM     10  N   UNL     1      -2.055  -6.680  -1.549  0.00  0.00    -0.185 NA
ATOM     11  C   UNL     1      -3.001  -5.941  -2.090  0.00  0.00    +0.172 A 
ATOM     12  N   UNL     1      -3.148  -4.628  -1.756  0.00  0.00    -0.322 N 
ATOM     13  C   UNL     1      -2.304  -4.054  -0.843  0.00  0.00    +0.111 A 
ATOM     14  N   UNL     1      -2.442  -2.728  -0.503  0.00  0.00    -0.304 N 
ATOM     15  C   UNL     1       0.675  -2.018   1.267  0.00  0.00    +0.162 C 
ATOM     16  O   UNL     1       1.566  -2.646   1.805  0.00  0.00    -0.292 OA
ATOM     17  C   UNL     1       0.743  -0.516   1.242  0.00  0.00    +0.086 C 
ATOM     18  C   UNL     1       0.709  -0.502  -1.260  0.00  0.00    +0.011 C 
ATOM     19  H   UNL     1      -3.280  -2.272  -0.680  0.00  0.00    +0.153 HD
ATOM     20  H   UNL     1      -3.850  -4.100  -2.167  0.00  0.00    +0.169 HD
ENDROOT
BRANCH   6  21
ATOM     21  C   UNL     1      -0.798  -4.664   2.113  0.00  0.00    -0.035 A 
ATOM     22  C   UNL     1      -2.045  -4.320   2.603  0.00  0.00    +0.006 A 
ATOM     23  C   UNL     1      -2.430  -4.726   3.864  0.00  0.00    +0.019 A 
ATOM     24  C   UNL     1      -1.558  -5.486   4.646  0.00  0.00    +0.052 A 
ATOM     25  C   UNL     1      -0.301  -5.830   4.145  0.00  0.00    +0.019 A 
ATOM     26  C   UNL     1       0.070  -5.421   2.880  0.00  0.00    +0.006 A 
BRANCH  24  27
ATOM     27  C   UNL     1      -1.950  -5.911   5.956  0.00  0.00    +0.099 C 
ATOM     28  N   UNL     1      -2.262  -6.248   6.995  0.00  0.00    -0.191 NA
ENDBRANCH  24  27
ENDBRANCH   6  21
BRANCH  11  29
ATOM     29  S   UNL     1      -4.097  -6.663  -3.267  0.00  0.00    -0.083 S 
BRANCH  29  30
ATOM     30  C   UNL     1      -3.535  -8.383  -3.392  0.00  0.00    +0.112 C 
BRANCH  30  31
ATOM     31  C   UNL     1      -4.399  -9.123  -4.380  0.00  0.00    -0.037 A 
ATOM     32  C   UNL     1      -5.545  -9.766  -3.950  0.00  0.00    +0.007 A 
ATOM     33  C   UNL     1      -6.338 -10.444  -4.857  0.00  0.00    +0.033 A 
ATOM     34  C   UNL     1      -5.985 -10.480  -6.193  0.00  0.00    +0.126 A 
ATOM     35  C   UNL     1      -4.840  -9.836  -6.623  0.00  0.00    +0.033 A 
ATOM     36  C   UNL     1      -4.049  -9.154  -5.717  0.00  0.00    +0.007 A 
BRANCH  34  37
ATOM     37  N   UNL     1      -6.834 -11.208  -7.163  0.00  0.00    +0.056 N 
ATOM     38  O   UNL     1      -7.835 -11.771  -6.787  0.00  0.00    -0.126 OA
ATOM     39  O   UNL     1      -6.525 -11.239  -8.332  0.00  0.00    -0.126 OA
ENDBRANCH  34  37
ENDBRANCH  30  31
ENDBRANCH  29  30
ENDBRANCH  11  29
TORSDOF 6
