REMARK  Name = ZINC09177559
REMARK  11 active torsions:
REMARK  status: ('A' for Active; 'I' for Inactive)
REMARK    1  A    between atoms: C_1  and  N_58
REMARK    2  A    between atoms: C_2  and  N_58
REMARK    3  A    between atoms: C_3  and  C_4
REMARK    4  A    between atoms: C_3  and  N_58
REMARK    5  A    between atoms: C_4  and  C_5
REMARK    6  A    between atoms: C_5  and  N_6
REMARK    7  A    between atoms: C_7  and  C_27
REMARK    8  A    between atoms: C_10  and  C_11
REMARK    9  A    between atoms: C_10  and  O_22
REMARK   10  A    between atoms: C_17  and  O_20
REMARK   11  A    between atoms: O_20  and  C_21
REMARK                            x       y       z     vdW  Elec       q    Type
REMARK                         _______ _______ _______ _____ _____    ______ ____
ROOT
ATOM      1  N   UNL     1       0.013  -0.005  -0.000  0.00  0.00    -0.284 N 
ATOM      2  C   UNL     1       0.195  -0.868   1.171  0.00  0.00    +0.145 C 
ATOM      3  C   UNL     1      -0.012  -2.288   0.697  0.00  0.00    +0.074 C 
ATOM      4  C   UNL     1       0.062  -3.439   1.463  0.00  0.00    +0.168 C 
ATOM      5  C   UNL     1      -0.295  -2.205  -0.672  0.00  0.00    +0.249 C 
ATOM      6  O   UNL     1      -0.522  -3.146  -1.413  0.00  0.00    -0.282 OA
ATOM      7  C   UNL     1      -0.275  -0.771  -1.066  0.00  0.00    +0.288 C 
ATOM      8  O   UNL     1      -0.485  -0.354  -2.186  0.00  0.00    -0.266 OA
ENDROOT
BRANCH   4   9
ATOM      9  C   UNL     1      -0.037  -4.751   0.823  0.00  0.00    +0.171 A 
ATOM     10  C   UNL     1      -0.828  -5.777   1.248  0.00  0.00    +0.061 A 
ATOM     11  C   UNL     1      -0.623  -6.853   0.348  0.00  0.00    +0.025 A 
ATOM     12  C   UNL     1      -1.142  -8.151   0.257  0.00  0.00    +0.012 A 
ATOM     13  C   UNL     1      -0.733  -8.977  -0.749  0.00  0.00    +0.004 A 
ATOM     14  C   UNL     1       0.195  -8.543  -1.686  0.00  0.00    +0.049 A 
ATOM     15  C   UNL     1       0.721  -7.266  -1.617  0.00  0.00    +0.163 A 
ATOM     16  C   UNL     1       0.317  -6.405  -0.597  0.00  0.00    +0.177 A 
ATOM     17  O   UNL     1       0.645  -5.137  -0.277  0.00  0.00    -0.448 OA
BRANCH  15  18
ATOM     18  O   UNL     1       1.629  -6.851  -2.540  0.00  0.00    -0.491 OA
ATOM     19  C   UNL     1       1.996  -7.787  -3.556  0.00  0.00    +0.277 C 
ENDBRANCH  15  18
ENDBRANCH   4   9
BRANCH   2  20
ATOM     20  C   UNL     1      -0.821  -0.522   2.229  0.00  0.00    -0.022 A 
ATOM     21  C   UNL     1      -2.120  -0.219   1.867  0.00  0.00    +0.007 A 
ATOM     22  C   UNL     1      -3.053   0.093   2.837  0.00  0.00    +0.015 A 
ATOM     23  C   UNL     1      -2.684   0.113   4.170  0.00  0.00    +0.018 A 
ATOM     24  C   UNL     1      -1.383  -0.185   4.532  0.00  0.00    +0.015 A 
ATOM     25  C   UNL     1      -0.452  -0.503   3.561  0.00  0.00    +0.007 A 
ATOM     26 BR   UNL     1      -3.959   0.547   5.498  0.00  0.00    -0.050 Br
ENDBRANCH   2  20
BRANCH   4  27
ATOM     27  O   UNL     1       0.227  -3.351   2.802  0.00  0.00    -0.503 OA
ATOM     28  H   UNL     1       0.260  -4.270   3.195  0.00  0.00    +0.292 HD
ENDBRANCH   4  27
BRANCH   1  29
ATOM     29  C   UNL     1       0.122   1.456  -0.007  0.00  0.00    +0.107 C 
BRANCH  29  30
ATOM     30  C   UNL     1       1.567   1.859  -0.305  0.00  0.00    +0.000 C 
BRANCH  30  31
ATOM     31  C   UNL     1       1.681   3.384  -0.312  0.00  0.00    -0.078 C 
BRANCH  31  34
ATOM     32  C   UNL     1       3.172   5.215  -0.848  0.00  0.00    -0.097 C 
ATOM     33  C   UNL     1       3.966   3.359   0.489  0.00  0.00    -0.097 C 
ATOM     34  N   UNL     1       3.077   3.757  -0.623  0.00  0.00    +0.376 N 
ATOM     35  H   UNL     1       3.371   3.268  -1.476  0.00  0.00    -0.083 HD
ENDBRANCH  31  34
ENDBRANCH  30  31
ENDBRANCH  29  30
ENDBRANCH   1  29
TORSDOF 8
