REMARK  Name = ZINC21525201
REMARK  6 active torsions:
REMARK  status: ('A' for Active; 'I' for Inactive)
REMARK    1  A    between atoms: C_1  and  C_2
REMARK    2  A    between atoms: C_13  and  C_15
REMARK    3  A    between atoms: C_18  and  O_21
REMARK    4  A    between atoms: O_21  and  C_22
REMARK    5  A    between atoms: C_22  and  C_23
REMARK    6  A    between atoms: C_22  and  C_24
REMARK                            x       y       z     vdW  Elec       q    Type
REMARK                         _______ _______ _______ _____ _____    ______ ____
ROOT
ATOM      1  C   UNL     1       0.289   1.016  -0.550  0.00  0.00    +0.068 C 
ATOM      2  C   UNL     1       0.412  -0.464  -0.806  0.00  0.00    +0.066 A 
ATOM      3  C   UNL     1       0.442  -1.079  -2.075  0.00  0.00    +0.032 A 
ATOM      4  C   UNL     1       0.559  -2.412  -1.885  0.00  0.00    +0.125 A 
ATOM      5  N   UNL     1       0.605  -2.622  -0.532  0.00  0.00    -0.263 N 
ATOM      6  H   UNL     1       0.689  -3.483  -0.094  0.00  0.00    +0.190 HD
ATOM      7  N   UNL     1       0.515  -1.386   0.107  0.00  0.00    -0.177 NA
ATOM      8  N   UNL     1       0.627  -3.462  -2.768  0.00  0.00    -0.270 N 
ATOM      9  C   UNL     1       0.656  -3.572  -4.062  0.00  0.00    +0.228 C 
ATOM     10  O   UNL     1       0.827  -4.699  -4.475  0.00  0.00    -0.275 OA
ATOM     11  C   UNL     1       0.513  -2.541  -5.112  0.00  0.00    +0.166 C 
ATOM     12  S   UNL     1       1.313  -0.989  -4.686  0.00  0.00    -0.138 S 
ATOM     13  C   UNL     1       0.352  -0.288  -3.342  0.00  0.00    +0.112 C 
ATOM     14  H   UNL     1       0.662  -4.322  -2.321  0.00  0.00    +0.156 HD
ENDROOT
BRANCH  13  15
ATOM     15  C   UNL     1       0.843   1.111  -3.075  0.00  0.00    -0.030 A 
ATOM     16  C   UNL     1       2.138   1.316  -2.636  0.00  0.00    +0.008 A 
ATOM     17  C   UNL     1       2.591   2.598  -2.389  0.00  0.00    +0.046 A 
ATOM     18  C   UNL     1       1.744   3.680  -2.583  0.00  0.00    +0.121 A 
ATOM     19  C   UNL     1       0.446   3.472  -3.024  0.00  0.00    +0.046 A 
ATOM     20  C   UNL     1      -0.000   2.189  -3.274  0.00  0.00    +0.008 A 
BRANCH  18  21
ATOM     21  O   UNL     1       2.187   4.942  -2.341  0.00  0.00    -0.489 OA
BRANCH  21  22
ATOM     22  C   UNL     1       3.493   5.074  -1.776  0.00  0.00    +0.167 C 
ATOM     23  C   UNL     1       4.537   5.048  -2.895  0.00  0.00    +0.051 C 
ATOM     24  C   UNL     1       3.590   6.400  -1.020  0.00  0.00    +0.051 C 
ENDBRANCH  21  22
ENDBRANCH  18  21
ENDBRANCH  13  15
TORSDOF 3
