REMARK  Name = ZINC39955919
REMARK  8 active torsions:
REMARK  status: ('A' for Active; 'I' for Inactive)
REMARK    1  A    between atoms: C_1  and  C_2
REMARK    2  A    between atoms: C_2  and  C_3
REMARK    3  A    between atoms: C_10  and  C_14
REMARK    4  A    between atoms: C_17  and  O_20
REMARK    5  A    between atoms: O_20  and  C_21
REMARK    6  A    between atoms: C_21  and  C_22
REMARK    7  A    between atoms: C_21  and  C_23
REMARK    8  A    between atoms: C_21  and  C_24
REMARK                            x       y       z     vdW  Elec       q    Type
REMARK                         _______ _______ _______ _____ _____    ______ ____
ROOT
ATOM      1  C   UNL     1       2.023  -1.725  -3.538  0.00  0.00    +0.015 A 
ATOM      2  C   UNL     1       1.807  -2.127  -4.857  0.00  0.00    +0.140 A 
ATOM      3  N   UNL     1       2.967  -2.325  -5.430  0.00  0.00    -0.170 NA
ATOM      4  N   UNL     1       3.975  -2.055  -4.494  0.00  0.00    -0.180 N 
ATOM      5  C   UNL     1       3.370  -1.680  -3.330  0.00  0.00    +0.141 A 
ATOM      6  N   UNL     1       4.127  -1.346  -2.223  0.00  0.00    -0.339 N 
ATOM      7  H   UNL     1       3.690  -1.083  -1.397  0.00  0.00    +0.167 HD
ATOM      8  C   UNL     1       5.497  -1.387  -2.291  0.00  0.00    +0.053 A 
ATOM      9  C   UNL     1       6.106  -1.763  -3.469  0.00  0.00    +0.098 A 
ATOM     10  C   UNL     1       5.319  -2.106  -4.578  0.00  0.00    +0.275 A 
ATOM     11  O   UNL     1       5.851  -2.437  -5.623  0.00  0.00    -0.266 OA
ENDROOT
BRANCH   8  12
ATOM     12  C   UNL     1       6.311  -1.032  -1.113  0.00  0.00    -0.001 A 
ATOM     13  C   UNL     1       5.690  -0.656   0.081  0.00  0.00    +0.013 A 
ATOM     14  C   UNL     1       6.454  -0.325   1.179  0.00  0.00    +0.046 A 
ATOM     15  C   UNL     1       7.841  -0.363   1.099  0.00  0.00    +0.121 A 
ATOM     16  C   UNL     1       8.463  -0.736  -0.086  0.00  0.00    +0.046 A 
ATOM     17  C   UNL     1       7.706  -1.075  -1.186  0.00  0.00    +0.013 A 
BRANCH  15  18
ATOM     18  O   UNL     1       8.590  -0.035   2.183  0.00  0.00    -0.487 OA
BRANCH  18  19
ATOM     19  C   UNL     1      10.005  -0.193   2.065  0.00  0.00    +0.102 C 
ATOM     20  C   UNL     1      10.534   0.747   0.980  0.00  0.00    +0.055 C 
ATOM     21  C   UNL     1      10.669   0.146   3.401  0.00  0.00    +0.055 C 
ATOM     22  C   UNL     1      10.328  -1.640   1.687  0.00  0.00    +0.055 C 
ENDBRANCH  18  19
ENDBRANCH  15  18
ENDBRANCH   8  12
BRANCH   1  24
ATOM     23  C   UNL     1       0.706   0.115  -2.525  0.00  0.00    +0.009 C 
ATOM     24  C   UNL     1       0.958  -1.394  -2.525  0.00  0.00    +0.037 C 
ENDBRANCH   1  24
TORSDOF 4
