REMARK  Name = ZINC09536160
REMARK  5 active torsions:
REMARK  status: ('A' for Active; 'I' for Inactive)
REMARK    1  A    between atoms: C_1  and  C_2
REMARK    2  A    between atoms: N_11  and  C_12
REMARK    3  A    between atoms: C_12  and  C_13
REMARK    4  A    between atoms: C_13  and  C_15
REMARK    5  A    between atoms: C_13  and  C_20
REMARK                            x       y       z     vdW  Elec       q    Type
REMARK                         _______ _______ _______ _____ _____    ______ ____
ROOT
ATOM      1  C   UNL     1      -5.926   3.478  -3.205  0.00  0.00    +0.075 C 
ENDROOT
BRANCH   1   2
ATOM      2  C   UNL     1      -7.118   4.389  -3.349  0.00  0.00    -0.013 A 
ATOM      3  C   UNL     1      -8.370   4.136  -2.936  0.00  0.00    +0.088 A 
ATOM      4  N   UNL     1      -9.183   5.196  -3.235  0.00  0.00    -0.360 N 
ATOM      5  H   UNL     1     -10.130   5.247  -3.031  0.00  0.00    +0.165 HD
ATOM      6  C   UNL     1      -8.457   6.177  -3.873  0.00  0.00    +0.047 A 
ATOM      7  C   UNL     1      -7.132   5.715  -3.972  0.00  0.00    +0.003 A 
ATOM      8  C   UNL     1      -6.160   6.511  -4.581  0.00  0.00    +0.010 A 
ATOM      9  C   UNL     1      -6.502   7.737  -5.079  0.00  0.00    +0.001 A 
ATOM     10  C   UNL     1      -7.807   8.197  -4.983  0.00  0.00    +0.002 A 
ATOM     11  C   UNL     1      -8.782   7.428  -4.386  0.00  0.00    +0.026 A 
ENDBRANCH   1   2
BRANCH   1  12
ATOM     12  C   UNL     1      -6.197   2.179  -3.919  0.00  0.00    -0.001 A 
ATOM     13  C   UNL     1      -5.519   1.612  -4.947  0.00  0.00    +0.012 A 
ATOM     14  C   UNL     1      -5.954   0.400  -5.448  0.00  0.00    +0.008 A 
ATOM     15  C   UNL     1      -7.045  -0.186  -4.898  0.00  0.00    +0.045 A 
ATOM     16  S   UNL     1      -7.490   0.984  -3.625  0.00  0.00    -0.101 S 
ENDBRANCH   1  12
BRANCH   1  17
ATOM     17  C   UNL     1      -5.671   3.202  -1.722  0.00  0.00    +0.119 C 
BRANCH  17  27
ATOM     18  C   UNL     1      -3.182   1.792   2.191  0.00  0.00    +0.028 C 
ATOM     19  C   UNL     1      -2.300   1.130   1.131  0.00  0.00    +0.074 C 
ATOM     20  C   UNL     1      -0.878   1.691   1.221  0.00  0.00    +0.022 C 
ATOM     21  C   UNL     1      -0.038   1.130   0.072  0.00  0.00    +0.003 C 
ATOM     22  C   UNL     1      -0.644   1.565  -1.264  0.00  0.00    +0.019 C 
ATOM     23  C   UNL     1      -2.064   1.002  -1.384  0.00  0.00    +0.109 C 
ATOM     24  N   UNL     1      -2.838   1.418  -0.206  0.00  0.00    -0.283 N 
ATOM     25  C   UNL     1      -4.019   2.052  -0.350  0.00  0.00    +0.302 C 
ATOM     26  O   UNL     1      -4.700   2.295   0.627  0.00  0.00    -0.253 OA
ATOM     27  N   UNL     1      -4.444   2.416  -1.576  0.00  0.00    -0.298 N 
ATOM     28  H   UNL     1      -3.937   2.157  -2.361  0.00  0.00    +0.150 HD
ENDBRANCH  17  27
ENDBRANCH   1  17
TORSDOF 4
