REMARK  Name = ZINC23410703
REMARK  12 active torsions:
REMARK  status: ('A' for Active; 'I' for Inactive)
REMARK    1  A    between atoms: C_1  and  C_2
REMARK    2  A    between atoms: C_5  and  C_8
REMARK    3  A    between atoms: C_8  and  N_9
REMARK    4  A    between atoms: N_9  and  C_10
REMARK    5  A    between atoms: N_9  and  S_30
REMARK    6  A    between atoms: C_10  and  C_11
REMARK    7  A    between atoms: N_13  and  N_14
REMARK    8  A    between atoms: C_15  and  C_16
REMARK    9  A    between atoms: C_21  and  O_22
REMARK   10  A    between atoms: O_22  and  C_23
REMARK   11  A    between atoms: C_23  and  C_24
REMARK   12  A    between atoms: S_30  and  C_33
REMARK                            x       y       z     vdW  Elec       q    Type
REMARK                         _______ _______ _______ _____ _____    ______ ____
ROOT
ATOM      1  C   UNL     1      -5.266   0.888   0.314  0.00  0.00    +0.248 C 
ATOM      2  O   UNL     1      -5.276  -0.268   0.682  0.00  0.00    -0.273 OA
ATOM      3  N   UNL     1      -4.106   1.573   0.273  0.00  0.00    -0.206 N 
ATOM      4  H   UNL     1      -4.108   2.642   0.016  0.00  0.00    +0.177 HD
ENDROOT
BRANCH   3   5
ATOM      5  N   UNL     1      -2.898   0.922   0.558  0.00  0.00    -0.188 NA
ATOM      6  C   UNL     1      -1.773   1.552   0.414  0.00  0.00    +0.142 C 
BRANCH   6   7
ATOM      7  C   UNL     1      -0.514   0.921   0.850  0.00  0.00    +0.036 A 
ATOM      8  C   UNL     1       0.709   1.549   0.603  0.00  0.00    +0.013 A 
ATOM      9  C   UNL     1       1.883   0.950   1.008  0.00  0.00    +0.001 A 
ATOM     10  C   UNL     1       1.855  -0.271   1.660  0.00  0.00    +0.004 A 
ATOM     11  C   UNL     1       0.651  -0.902   1.911  0.00  0.00    +0.046 A 
ATOM     12  C   UNL     1      -0.538  -0.315   1.510  0.00  0.00    +0.130 A 
BRANCH  12  13
ATOM     13  O   UNL     1      -1.721  -0.935   1.756  0.00  0.00    -0.487 OA
BRANCH  13  14
ATOM     14  C   UNL     1      -1.677  -2.132   2.535  0.00  0.00    +0.264 C 
BRANCH  14  15
ATOM     15  C   UNL     1      -3.072  -2.679   2.695  0.00  0.00    -0.010 A 
ATOM     16  C   UNL     1      -3.845  -2.296   3.776  0.00  0.00    +0.007 A 
ATOM     17  C   UNL     1      -5.126  -2.793   3.920  0.00  0.00    +0.000 A 
ATOM     18  C   UNL     1      -5.631  -3.682   2.989  0.00  0.00    +0.000 A 
ATOM     19  C   UNL     1      -4.856  -4.069   1.912  0.00  0.00    +0.000 A 
ATOM     20  C   UNL     1      -3.577  -3.567   1.765  0.00  0.00    +0.007 A 
ENDBRANCH  14  15
ENDBRANCH  13  14
ENDBRANCH  12  13
ENDBRANCH   6   7
ENDBRANCH   3   5
BRANCH   1  21
ATOM     21  C   UNL     1      -6.552   1.558  -0.097  0.00  0.00    +0.207 C 
BRANCH  21  22
ATOM     22  N   UNL     1      -7.632   0.569  -0.122  0.00  0.00    -0.163 NA
BRANCH  22  23
ATOM     23  S   UNL     1      -8.585   0.349   1.215  0.00  0.00    +0.062 S 
ATOM     24  O   UNL     1      -9.001  -1.010   1.198  0.00  0.00    -0.153 OA
ATOM     25  O   UNL     1      -7.883   0.918   2.312  0.00  0.00    -0.153 OA
BRANCH  23  26
ATOM     26  C   UNL     1     -10.036   1.322   0.986  0.00  0.00    +0.106 A 
ATOM     27  C   UNL     1     -10.070   2.629   1.436  0.00  0.00    +0.028 A 
ATOM     28  C   UNL     1     -11.206   3.394   1.252  0.00  0.00    +0.002 A 
ATOM     29  C   UNL     1     -12.312   2.849   0.627  0.00  0.00    +0.000 A 
ATOM     30  C   UNL     1     -12.280   1.541   0.182  0.00  0.00    +0.002 A 
ATOM     31  C   UNL     1     -11.142   0.778   0.361  0.00  0.00    +0.028 A 
ENDBRANCH  23  26
ENDBRANCH  22  23
BRANCH  22  32
ATOM     32  C   UNL     1      -7.870  -0.227  -1.329  0.00  0.00    +0.145 C 
BRANCH  32  37
ATOM     33  C   UNL     1      -4.384  -4.836  -1.317  0.00  0.00    +0.044 C 
ATOM     34  C   UNL     1      -5.293  -3.634  -1.321  0.00  0.00    -0.050 A 
ATOM     35  C   UNL     1      -6.580  -3.739  -0.826  0.00  0.00    +0.003 A 
ATOM     36  C   UNL     1      -7.414  -2.636  -0.830  0.00  0.00    +0.005 A 
ATOM     37  C   UNL     1      -6.960  -1.429  -1.326  0.00  0.00    -0.032 A 
ATOM     38  C   UNL     1      -5.675  -1.325  -1.824  0.00  0.00    +0.005 A 
ATOM     39  C   UNL     1      -4.840  -2.426  -1.817  0.00  0.00    +0.003 A 
ENDBRANCH  32  37
ENDBRANCH  22  32
ENDBRANCH  21  22
ENDBRANCH   1  21
TORSDOF 11
