REMARK  Name = ZINC05313251
REMARK  6 active torsions:
REMARK  status: ('A' for Active; 'I' for Inactive)
REMARK    1  A    between atoms: C_1  and  C_2
REMARK    2  A    between atoms: C_2  and  O_3
REMARK    3  A    between atoms: O_3  and  C_4
REMARK    4  A    between atoms: C_13  and  C_14
REMARK    5  A    between atoms: N_16  and  C_17
REMARK    6  A    between atoms: C_17  and  C_18
REMARK                            x       y       z     vdW  Elec       q    Type
REMARK                         _______ _______ _______ _____ _____    ______ ____
ROOT
ATOM      1  C   UNL     1      -1.372   6.050   0.045  0.00  0.00    +0.249 C 
ATOM      2  O   UNL     1      -1.887   6.353   1.105  0.00  0.00    -0.270 OA
ATOM      3  N   UNL     1      -1.964   6.397  -1.115  0.00  0.00    -0.306 N 
ATOM      4  H   UNL     1      -1.553   6.156  -1.960  0.00  0.00    +0.149 HD
ENDROOT
BRANCH   1  14
ATOM      5  C   UNL     1       1.118   5.981   0.022  0.00  0.00    +0.133 A 
ATOM      6  C   UNL     1       2.318   5.268   0.007  0.00  0.00    +0.047 A 
ATOM      7  C   UNL     1       2.343   3.910  -0.000  0.00  0.00    +0.012 A 
ATOM      8  C   UNL     1       1.148   3.167   0.008  0.00  0.00    -0.017 A 
ATOM      9  C   UNL     1       1.164   1.763   0.000  0.00  0.00    +0.008 A 
ATOM     10  C   UNL     1      -0.013   1.076   0.008  0.00  0.00    +0.001 A 
ATOM     11  C   UNL     1      -1.234   1.745   0.017  0.00  0.00    +0.001 A 
ATOM     12  C   UNL     1      -1.285   3.107   0.030  0.00  0.00    +0.009 A 
ATOM     13  C   UNL     1      -0.095   3.845   0.023  0.00  0.00    -0.002 A 
ATOM     14  C   UNL     1      -0.104   5.307   0.030  0.00  0.00    +0.086 A 
BRANCH   5  15
ATOM     15  O   UNL     1       1.140   7.336   0.028  0.00  0.00    -0.491 OA
BRANCH  15  17
ATOM     16  C   UNL     1       2.247   9.484   0.028  0.00  0.00    +0.048 C 
ATOM     17  C   UNL     1       2.423   7.965   0.019  0.00  0.00    +0.226 C 
ENDBRANCH  15  17
ENDBRANCH   5  15
ENDBRANCH   1  14
BRANCH   3  18
ATOM     18  C   UNL     1      -3.228   7.138  -1.100  0.00  0.00    +0.162 C 
BRANCH  18  19
ATOM     19  C   UNL     1      -3.674   7.399  -2.515  0.00  0.00    +0.086 A 
ATOM     20  C   UNL     1      -4.920   8.123  -2.768  0.00  0.00    +0.012 A 
ATOM     21  C   UNL     1      -5.720   8.598  -1.727  0.00  0.00    +0.010 A 
ATOM     22  C   UNL     1      -6.872   9.275  -2.014  0.00  0.00    +0.001 A 
ATOM     23  C   UNL     1      -7.258   9.502  -3.329  0.00  0.00    +0.001 A 
ATOM     24  C   UNL     1      -6.486   9.049  -4.376  0.00  0.00    +0.014 A 
ATOM     25  C   UNL     1      -5.306   8.356  -4.107  0.00  0.00    +0.050 A 
ATOM     26  C   UNL     1      -4.440   7.848  -5.179  0.00  0.00    +0.272 A 
ATOM     27  O   UNL     1      -4.734   8.020  -6.348  0.00  0.00    -0.266 OA
ATOM     28  N   UNL     1      -3.313   7.187  -4.844  0.00  0.00    -0.242 N 
ATOM     29  H   UNL     1      -2.719   6.838  -5.569  0.00  0.00    +0.192 HD
ATOM     30  N   UNL     1      -2.954   6.977  -3.512  0.00  0.00    -0.174 NA
ENDBRANCH  18  19
ENDBRANCH   3  18
TORSDOF 5
