REMARK  Name = ZINC05929293
REMARK  7 active torsions:
REMARK  status: ('A' for Active; 'I' for Inactive)
REMARK    1  A    between atoms: C_1  and  O_2
REMARK    2  A    between atoms: O_2  and  C_3
REMARK    3  A    between atoms: C_3  and  C_5
REMARK    4  A    between atoms: C_10  and  N_11
REMARK    5  A    between atoms: C_18  and  C_23
REMARK    6  A    between atoms: C_19  and  O_22
REMARK    7  A    between atoms: C_23  and  C_24
REMARK                            x       y       z     vdW  Elec       q    Type
REMARK                         _______ _______ _______ _____ _____    ______ ____
ROOT
ATOM      1  N   UNL     1      -1.092  -0.779   0.196  0.00  0.00    -0.299 N 
ATOM      2  C   UNL     1      -1.077  -2.168   0.237  0.00  0.00    +0.124 A 
ATOM      3  C   UNL     1       0.154  -2.838   0.280  0.00  0.00    +0.044 A 
ATOM      4  C   UNL     1       0.184  -4.199   0.321  0.00  0.00    +0.013 A 
ATOM      5  C   UNL     1      -1.042  -4.895   0.317  0.00  0.00    +0.004 A 
ATOM      6  C   UNL     1      -1.084  -6.298   0.358  0.00  0.00    +0.010 A 
ATOM      7  C   UNL     1      -2.285  -6.939   0.353  0.00  0.00    +0.008 A 
ATOM      8  C   UNL     1      -3.478  -6.222   0.309  0.00  0.00    +0.000 A 
ATOM      9  C   UNL     1      -3.477  -4.857   0.269  0.00  0.00    +0.146 A 
ATOM     10  C   UNL     1      -2.251  -4.160   0.272  0.00  0.00    +0.115 A 
ATOM     11  N   UNL     1      -2.218  -2.824   0.239  0.00  0.00    -0.228 NA
ATOM     12  H   UNL     1      -1.935  -0.302   0.246  0.00  0.00    +0.154 HD
ENDROOT
BRANCH   1  18
ATOM     13  C   UNL     1       0.707   0.089  -1.174  0.00  0.00    +0.080 A 
ATOM     14  C   UNL     1       1.906   0.800  -1.273  0.00  0.00    +0.017 A 
ATOM     15  C   UNL     1       2.484   1.335  -0.143  0.00  0.00    +0.001 A 
ATOM     16  C   UNL     1       1.883   1.172   1.095  0.00  0.00    +0.002 A 
ATOM     17  C   UNL     1       0.699   0.472   1.210  0.00  0.00    +0.024 A 
ATOM     18  C   UNL     1       0.101  -0.074   0.082  0.00  0.00    +0.046 A 
BRANCH  13  19
ATOM     19  C   UNL     1       0.086  -0.490  -2.377  0.00  0.00    +0.341 C 
ATOM     20  O   UNL     1      -0.931  -1.147  -2.280  0.00  0.00    -0.245 OA
BRANCH  19  22
ATOM     21  C   UNL     1      -0.018  -0.893  -4.729  0.00  0.00    +0.280 C 
ATOM     22  O   UNL     1       0.647  -0.292  -3.587  0.00  0.00    -0.464 OA
ENDBRANCH  19  22
ENDBRANCH  13  19
ENDBRANCH   1  18
BRANCH   9  23
ATOM     23  O   UNL     1      -4.650  -4.174   0.225  0.00  0.00    -0.504 OA
ATOM     24  H   UNL     1      -4.973  -4.002  -0.670  0.00  0.00    +0.292 HD
ENDBRANCH   9  23
BRANCH   8  25
ATOM     25  C   UNL     1      -4.790  -6.964   0.305  0.00  0.00    +0.074 C 
BRANCH  25  26
ATOM     26  C   UNL     1      -5.261  -7.144  -1.115  0.00  0.00    -0.043 A 
ATOM     27  C   UNL     1      -6.070  -6.189  -1.702  0.00  0.00    +0.004 A 
ATOM     28  C   UNL     1      -6.498  -6.353  -3.006  0.00  0.00    +0.000 A 
ATOM     29  C   UNL     1      -6.126  -7.476  -3.720  0.00  0.00    +0.000 A 
ATOM     30  C   UNL     1      -5.322  -8.434  -3.131  0.00  0.00    +0.000 A 
ATOM     31  C   UNL     1      -4.889  -8.268  -1.829  0.00  0.00    +0.004 A 
ENDBRANCH  25  26
ENDBRANCH   8  25
TORSDOF 6
