REMARK  Name = ZINC36273849
REMARK  7 active torsions:
REMARK  status: ('A' for Active; 'I' for Inactive)
REMARK    1  A    between atoms: C_1  and  O_2
REMARK    2  A    between atoms: O_2  and  C_3
REMARK    3  A    between atoms: C_6  and  C_10
REMARK    4  A    between atoms: C_8  and  N_9
REMARK    5  A    between atoms: C_16  and  O_19
REMARK    6  A    between atoms: O_19  and  C_20
REMARK    7  A    between atoms: C_20  and  C_21
REMARK                            x       y       z     vdW  Elec       q    Type
REMARK                         _______ _______ _______ _____ _____    ______ ____
ROOT
ATOM      1  C   UNL     1      -4.972  -2.617   0.036  0.00  0.00    +0.065 A 
ATOM      2  C   UNL     1      -5.168  -3.965   0.042  0.00  0.00    +0.119 A 
ATOM      3  N   UNL     1      -6.519  -4.174   0.050  0.00  0.00    -0.305 N 
ATOM      4  C   UNL     1      -7.274  -5.314   0.059  0.00  0.00    +0.093 A 
ATOM      5  C   UNL     1      -8.622  -5.247   0.066  0.00  0.00    +0.022 A 
ATOM      6  C   UNL     1      -9.271  -4.001   0.065  0.00  0.00    +0.051 A 
ATOM      7  C   UNL     1      -8.531  -2.855   0.057  0.00  0.00    +0.162 A 
ATOM      8  C   UNL     1      -7.120  -2.943   0.049  0.00  0.00    +0.159 A 
ATOM      9  N   UNL     1      -6.172  -2.017   0.046  0.00  0.00    -0.337 N 
ATOM     10  H   UNL     1      -6.322  -1.059   0.048  0.00  0.00    +0.167 HD
ENDROOT
BRANCH   1  14
ATOM     11  C   UNL     1      -1.201  -0.638   0.010  0.00  0.00    +0.141 A 
ATOM     12  C   UNL     1      -2.373   0.102   0.019  0.00  0.00    +0.048 A 
ATOM     13  C   UNL     1      -3.597  -0.538   0.028  0.00  0.00    +0.014 A 
ATOM     14  C   UNL     1      -3.656  -1.930   0.027  0.00  0.00    +0.002 A 
ATOM     15  C   UNL     1      -2.480  -2.676   0.017  0.00  0.00    +0.036 A 
ATOM     16  C   UNL     1      -1.254  -2.031   0.003  0.00  0.00    +0.067 A 
BRANCH  16  17
ATOM     17  N   UNL     1      -0.070  -2.777  -0.013  0.00  0.00    -0.355 N 
ATOM     18  H   UNL     1       0.788  -2.325  -0.019  0.00  0.00    +0.142 HD
ATOM     19  H   UNL     1      -0.107  -3.746  -0.018  0.00  0.00    +0.142 HD
ENDBRANCH  16  17
BRANCH  11  21
ATOM     20  C   UNL     1      -0.017   1.425   0.010  0.00  0.00    +0.277 C 
ATOM     21  O   UNL     1       0.002  -0.004   0.002  0.00  0.00    -0.493 OA
ENDBRANCH  11  21
ENDBRANCH   1  14
BRANCH   7  22
ATOM     22  O   UNL     1      -9.144  -1.642   0.056  0.00  0.00    -0.484 OA
BRANCH  22  23
ATOM     23  C   UNL     1     -10.573  -1.637   0.063  0.00  0.00    +0.267 C 
BRANCH  23  24
ATOM     24  C   UNL     1     -11.071  -0.214   0.060  0.00  0.00    +0.025 A 
ATOM     25  C   UNL     1     -10.169   0.833   0.046  0.00  0.00    +0.010 A 
ATOM     26  C   UNL     1     -10.625   2.138   0.043  0.00  0.00    +0.001 A 
ATOM     27  C   UNL     1     -11.984   2.397   0.055  0.00  0.00    +0.003 A 
ATOM     28  C   UNL     1     -12.887   1.351   0.069  0.00  0.00    +0.039 A 
ATOM     29  C   UNL     1     -12.431   0.043   0.067  0.00  0.00    +0.130 A 
ATOM     30  F   UNL     1     -13.313  -0.980   0.075  0.00  0.00    -0.205 F 
ENDBRANCH  23  24
ENDBRANCH  22  23
ENDBRANCH   7  22
TORSDOF 6
