REMARK  Name = ZINC03199630
REMARK  6 active torsions:
REMARK  status: ('A' for Active; 'I' for Inactive)
REMARK    1  A    between atoms: C_1  and  O_2
REMARK    2  A    between atoms: O_2  and  C_3
REMARK    3  A    between atoms: C_3  and  C_5
REMARK    4  A    between atoms: C_7  and  C_15
REMARK    5  A    between atoms: C_20  and  O_21
REMARK    6  A    between atoms: O_21  and  C_22
REMARK                            x       y       z     vdW  Elec       q    Type
REMARK                         _______ _______ _______ _____ _____    ______ ____
ROOT
ATOM      1  C   UNL     1       0.679  -2.115   1.088  0.00  0.00    +0.166 C 
ATOM      2  C   UNL     1       1.411  -2.557   2.362  0.00  0.00    +0.128 C 
ATOM      3  N   UNL     1       0.579  -2.265   3.529  0.00  0.00    -0.291 N 
ATOM      4  C   UNL     1      -0.760  -2.286   3.480  0.00  0.00    +0.304 C 
ATOM      5  O   UNL     1      -1.386  -2.103   4.506  0.00  0.00    -0.253 OA
ATOM      6  N   UNL     1      -1.437  -2.503   2.338  0.00  0.00    -0.273 N 
ATOM      7  C   UNL     1      -0.725  -2.685   1.145  0.00  0.00    +0.021 C 
ATOM      8  C   UNL     1      -1.251  -3.323   0.118  0.00  0.00    +0.029 C 
ATOM      9  H   UNL     1       1.012  -2.048   4.369  0.00  0.00    +0.151 HD
ATOM     10  H   UNL     1      -2.407  -2.534   2.340  0.00  0.00    +0.156 HD
ENDROOT
BRANCH   2  11
ATOM     11  C   UNL     1       1.684  -4.038   2.297  0.00  0.00    +0.017 A 
ATOM     12  C   UNL     1       0.805  -4.929   2.883  0.00  0.00    +0.024 A 
ATOM     13  C   UNL     1       1.055  -6.288   2.823  0.00  0.00    +0.018 A 
ATOM     14  C   UNL     1       2.185  -6.758   2.177  0.00  0.00    +0.019 A 
ATOM     15  C   UNL     1       3.065  -5.871   1.590  0.00  0.00    +0.047 A 
ATOM     16  C   UNL     1       2.814  -4.507   1.644  0.00  0.00    +0.132 A 
ATOM     17 BR   UNL     1      -0.149  -7.505   3.626  0.00  0.00    -0.050 Br
BRANCH  16  18
ATOM     18  O   UNL     1       3.677  -3.633   1.063  0.00  0.00    -0.434 OA
BRANCH  18  19
ATOM     19  C   UNL     1       4.819  -4.187   0.408  0.00  0.00    +0.541 C 
ATOM     20  F   UNL     1       5.582  -4.909   1.332  0.00  0.00    -0.166 F 
ATOM     21  F   UNL     1       4.400  -5.040  -0.619  0.00  0.00    -0.166 F 
ENDBRANCH  18  19
ENDBRANCH  16  18
ENDBRANCH   2  11
BRANCH   1  22
ATOM     22  C   UNL     1       0.618  -0.611   1.029  0.00  0.00    +0.318 C 
ATOM     23  O   UNL     1       1.124   0.049   1.905  0.00  0.00    -0.250 OA
BRANCH  22  25
ATOM     24  C   UNL     1      -0.017   1.425   0.010  0.00  0.00    +0.280 C 
ATOM     25  O   UNL     1       0.002  -0.004   0.002  0.00  0.00    -0.467 OA
ENDBRANCH  22  25
ENDBRANCH   1  22
TORSDOF 5
