REMARK  Name = ZINC39237509
REMARK  7 active torsions:
REMARK  status: ('A' for Active; 'I' for Inactive)
REMARK    1  A    between atoms: C_1  and  C_2
REMARK    2  A    between atoms: C_5  and  C_7
REMARK    3  A    between atoms: C_9  and  C_32
REMARK    4  A    between atoms: C_10  and  C_31
REMARK    5  A    between atoms: C_17  and  C_18
REMARK    6  A    between atoms: C_23  and  C_24
REMARK    7  A    between atoms: N_34  and  C_35
REMARK                            x       y       z     vdW  Elec       q    Type
REMARK                         _______ _______ _______ _____ _____    ______ ____
ROOT
ATOM      1  C   UNL     1       2.259  -3.505  -0.501  0.00  0.00    +0.195 C 
ATOM      2  C   UNL     1       2.506  -3.548  -1.991  0.00  0.00    +0.066 C 
ATOM      3  C   UNL     1       3.765  -3.273  -2.441  0.00  0.00    +0.052 C 
ATOM      4  N   UNL     1       4.739  -2.978  -1.588  0.00  0.00    -0.228 NA
ATOM      5  C   UNL     1       4.601  -2.922  -0.288  0.00  0.00    +0.178 A 
ATOM      6  N   UNL     1       3.417  -3.163   0.371  0.00  0.00    -0.272 N 
ATOM      7  C   UNL     1       3.397  -3.076   1.708  0.00  0.00    +0.268 A 
ATOM      8  O   UNL     1       2.375  -3.282   2.335  0.00  0.00    -0.266 OA
ATOM      9  C   UNL     1       4.656  -2.723   2.395  0.00  0.00    +0.077 A 
ATOM     10  C   UNL     1       4.899  -2.575   3.703  0.00  0.00    +0.009 C 
ATOM     11  S   UNL     1       5.766  -2.550   1.009  0.00  0.00    -0.046 S 
ATOM     12  C   UNL     1       4.053  -3.305  -3.920  0.00  0.00    +0.066 C 
ENDROOT
BRANCH   1  17
ATOM     13  C   UNL     1      -0.077   0.889   0.320  0.00  0.00    +0.086 C 
ATOM     14  C   UNL     1       0.153  -0.586   0.117  0.00  0.00    +0.102 A 
ATOM     15  C   UNL     1      -0.795  -1.540   0.129  0.00  0.00    +0.045 A 
ATOM     16  C   UNL     1      -0.140  -2.772  -0.101  0.00  0.00    +0.047 A 
ATOM     17  C   UNL     1       1.169  -2.497  -0.240  0.00  0.00    +0.133 A 
ATOM     18  O   UNL     1       1.341  -1.171  -0.113  0.00  0.00    -0.462 OA
ENDBRANCH   1  17
BRANCH  10  19
ATOM     19  C   UNL     1       3.789  -2.776   4.703  0.00  0.00    +0.107 C 
ATOM     20  C   UNL     1       3.616  -1.540   5.564  0.00  0.00    +0.121 C 
ATOM     21  N   UNL     1       3.854  -1.914   6.779  0.00  0.00    -0.161 NA
ATOM     22  N   UNL     1       4.173  -3.265   6.868  0.00  0.00    -0.153 NA
ATOM     23  C   UNL     1       4.158  -3.855   5.701  0.00  0.00    +0.083 C 
BRANCH  23  24
ATOM     24  C   UNL     1       4.441  -5.271   5.414  0.00  0.00    -0.001 A 
ATOM     25  C   UNL     1       4.389  -5.745   4.099  0.00  0.00    +0.010 A 
ATOM     26  C   UNL     1       4.655  -7.073   3.838  0.00  0.00    +0.001 A 
ATOM     27  C   UNL     1       4.974  -7.935   4.873  0.00  0.00    +0.000 A 
ATOM     28  C   UNL     1       5.027  -7.473   6.177  0.00  0.00    +0.001 A 
ATOM     29  C   UNL     1       4.770  -6.146   6.453  0.00  0.00    +0.010 A 
ENDBRANCH  23  24
ENDBRANCH  10  19
BRANCH   2  30
ATOM     30  C   UNL     1       1.469  -3.862  -2.889  0.00  0.00    +0.248 C 
ATOM     31  O   UNL     1       1.215  -5.026  -3.143  0.00  0.00    -0.270 OA
ATOM     32  N   UNL     1       0.756  -2.875  -3.467  0.00  0.00    -0.282 N 
ATOM     33  H   UNL     1       0.883  -1.956  -3.185  0.00  0.00    +0.155 HD
BRANCH  32  34
ATOM     34  C   UNL     1      -0.167  -3.176  -4.473  0.00  0.00    +0.034 A 
ATOM     35  C   UNL     1      -0.919  -4.342  -4.401  0.00  0.00    +0.023 A 
ATOM     36  C   UNL     1      -1.831  -4.636  -5.396  0.00  0.00    +0.002 A 
ATOM     37  C   UNL     1      -1.995  -3.772  -6.463  0.00  0.00    +0.000 A 
ATOM     38  C   UNL     1      -1.248  -2.611  -6.537  0.00  0.00    +0.002 A 
ATOM     39  C   UNL     1      -0.339  -2.308  -5.543  0.00  0.00    +0.023 A 
ENDBRANCH  32  34
ENDBRANCH   2  30
TORSDOF 5
