REMARK  Name = ZINC59471597
REMARK  5 active torsions:
REMARK  status: ('A' for Active; 'I' for Inactive)
REMARK    1  A    between atoms: C_4  and  O_34
REMARK    2  A    between atoms: C_5  and  C_7
REMARK    3  A    between atoms: N_8  and  N_9
REMARK    4  A    between atoms: C_10  and  C_12
REMARK    5  A    between atoms: C_15  and  C_18
REMARK                            x       y       z     vdW  Elec       q    Type
REMARK                         _______ _______ _______ _____ _____    ______ ____
ROOT
ATOM      1  C   UNL     1       3.619  -6.315  -0.069  0.00  0.00    +0.038 A 
ATOM      2  C   UNL     1       2.425  -7.039  -0.067  0.00  0.00    +0.013 A 
ATOM      3  C   UNL     1       2.458  -8.418  -0.075  0.00  0.00    +0.006 A 
ATOM      4  C   UNL     1       3.671  -9.084  -0.085  0.00  0.00    -0.027 A 
ATOM      5  C   UNL     1       4.858  -8.373  -0.087  0.00  0.00    +0.006 A 
ATOM      6  C   UNL     1       4.839  -6.994  -0.085  0.00  0.00    +0.013 A 
ENDROOT
BRANCH   4   7
ATOM      7  C   UNL     1       3.699 -10.591  -0.093  0.00  0.00    +0.105 C 
ATOM      8  C   UNL     1       3.887 -11.055  -1.506  0.00  0.00    +0.029 C 
ATOM      9  C   UNL     1       3.419 -12.510  -1.712  0.00  0.00    +0.033 C 
ATOM     10  C   UNL     1       4.276 -13.006  -2.858  0.00  0.00    -0.030 C 
ATOM     11  C   UNL     1       5.320 -12.238  -3.028  0.00  0.00    -0.023 C 
ATOM     12  C   UNL     1       5.330 -11.135  -1.998  0.00  0.00    +0.049 C 
ATOM     13  C   UNL     1       6.303 -11.516  -0.918  0.00  0.00    -0.019 A 
ATOM     14  C   UNL     1       7.577 -11.917  -1.292  0.00  0.00    +0.006 A 
ATOM     15  C   UNL     1       8.503 -12.288  -0.338  0.00  0.00    +0.000 A 
ATOM     16  C   UNL     1       8.165 -12.263   1.003  0.00  0.00    +0.002 A 
ATOM     17  C   UNL     1       6.901 -11.862   1.385  0.00  0.00    +0.023 A 
ATOM     18  C   UNL     1       5.968 -11.482   0.423  0.00  0.00    +0.031 A 
ATOM     19  N   UNL     1       4.726 -11.035   0.827  0.00  0.00    -0.336 N 
ATOM     20  H   UNL     1       4.526 -11.048   1.776  0.00  0.00    +0.147 HD
ENDBRANCH   4   7
BRANCH   1  22
ATOM     21  N   UNL     1       2.412  -4.186  -0.045  0.00  0.00    -0.203 N 
ATOM     22  C   UNL     1       3.592  -4.838  -0.061  0.00  0.00    +0.263 C 
ATOM     23  O   UNL     1       4.633  -4.210  -0.068  0.00  0.00    -0.268 OA
ATOM     24  H   UNL     1       1.581  -4.686  -0.040  0.00  0.00    +0.178 HD
BRANCH  21  26
ATOM     25  C   UNL     1       1.250  -2.157  -0.022  0.00  0.00    +0.142 C 
ATOM     26  N   UNL     1       2.386  -2.785  -0.037  0.00  0.00    -0.187 NA
BRANCH  25  31
ATOM     27  C   UNL     1      -0.017   1.375   0.010  0.00  0.00    +0.001 A 
ATOM     28  C   UNL     1       1.169   2.089   0.002  0.00  0.00    +0.004 A 
ATOM     29  C   UNL     1       2.383   1.428  -0.013  0.00  0.00    +0.046 A 
ATOM     30  C   UNL     1       2.420   0.044  -0.021  0.00  0.00    +0.125 A 
ATOM     31  C   UNL     1       1.222  -0.684  -0.013  0.00  0.00    +0.036 A 
ATOM     32  C   UNL     1       0.002  -0.004   0.002  0.00  0.00    +0.013 A 
BRANCH  30  33
ATOM     33  O   UNL     1       3.613  -0.606  -0.037  0.00  0.00    -0.506 OA
ATOM     34  H   UNL     1       3.967  -0.799   0.842  0.00  0.00    +0.292 HD
ENDBRANCH  30  33
ENDBRANCH  25  31
ENDBRANCH  21  26
ENDBRANCH   1  22
TORSDOF 5
