REMARK  Name = ZINC02140127
REMARK  4 active torsions:
REMARK  status: ('A' for Active; 'I' for Inactive)
REMARK    1  A    between atoms: C_1  and  C_2
REMARK    2  A    between atoms: C_2  and  C_3
REMARK    3  A    between atoms: C_2  and  C_4
REMARK    4  A    between atoms: N_22  and  C_25
REMARK                            x       y       z     vdW  Elec       q    Type
REMARK                         _______ _______ _______ _____ _____    ______ ____
ROOT
ATOM      1  C   UNL     1       0.381   1.193   0.268  0.00  0.00    +0.125 C 
ATOM      2  C   UNL     1      -0.386   1.366  -1.028  0.00  0.00    +0.041 A 
ATOM      3  C   UNL     1      -1.586   1.978  -1.111  0.00  0.00    -0.015 A 
ATOM      4  C   UNL     1      -1.977   1.945  -2.508  0.00  0.00    +0.003 A 
ATOM      5  C   UNL     1      -3.103   2.421  -3.186  0.00  0.00    +0.010 A 
ATOM      6  C   UNL     1      -3.144   2.213  -4.543  0.00  0.00    +0.001 A 
ATOM      7  C   UNL     1      -2.125   1.563  -5.219  0.00  0.00    +0.002 A 
ATOM      8  C   UNL     1      -1.000   1.081  -4.573  0.00  0.00    +0.026 A 
ATOM      9  C   UNL     1      -0.930   1.279  -3.195  0.00  0.00    +0.047 A 
ATOM     10  N   UNL     1       0.013   0.941  -2.268  0.00  0.00    -0.356 N 
ATOM     11  H   UNL     1       0.840   0.472  -2.458  0.00  0.00    +0.166 HD
ATOM     12  C   UNL     1      -2.358   2.567   0.043  0.00  0.00    +0.069 C 
ATOM     13  C   UNL     1      -1.405   2.815   1.218  0.00  0.00    +0.167 C 
ATOM     14  N   UNL     1      -0.514   1.639   1.342  0.00  0.00    -0.291 N 
ATOM     15  C   UNL     1      -0.712   1.117   2.554  0.00  0.00    +0.148 C 
ATOM     16  S   UNL     1       0.163  -0.217   3.174  0.00  0.00    -0.018 S 
ATOM     17  N   UNL     1      -1.676   1.759   3.230  0.00  0.00    -0.220 N 
ATOM     18  C   UNL     1      -2.186   2.817   2.516  0.00  0.00    +0.246 C 
ATOM     19  O   UNL     1      -3.064   3.588   2.840  0.00  0.00    -0.273 OA
ENDROOT
BRANCH  17  20
ATOM     20  C   UNL     1      -2.110   1.399   4.513  0.00  0.00    +0.043 A 
ATOM     21  C   UNL     1      -2.804   0.212   4.706  0.00  0.00    +0.024 A 
ATOM     22  C   UNL     1      -3.225  -0.142   5.973  0.00  0.00    +0.002 A 
ATOM     23  C   UNL     1      -2.967   0.690   7.046  0.00  0.00    +0.000 A 
ATOM     24  C   UNL     1      -2.282   1.876   6.857  0.00  0.00    +0.002 A 
ATOM     25  C   UNL     1      -1.853   2.233   5.593  0.00  0.00    +0.024 A 
ENDBRANCH  17  20
BRANCH   1  27
ATOM     26  C   UNL     1       2.350   1.958   1.603  0.00  0.00    +0.009 C 
ATOM     27  C   UNL     1       1.647   2.053   0.247  0.00  0.00    +0.009 C 
ATOM     28  C   UNL     1       2.586   1.552  -0.852  0.00  0.00    +0.009 C 
ENDBRANCH   1  27
TORSDOF 2
