REMARK  Name = ZINC09312513
REMARK  7 active torsions:
REMARK  status: ('A' for Active; 'I' for Inactive)
REMARK    1  A    between atoms: C_4  and  N_35
REMARK    2  A    between atoms: C_5  and  C_7
REMARK    3  A    between atoms: C_10  and  C_12
REMARK    4  A    between atoms: C_14  and  C_26
REMARK    5  A    between atoms: C_16  and  C_21
REMARK    6  A    between atoms: C_16  and  O_25
REMARK    7  A    between atoms: C_26  and  C_28
REMARK                            x       y       z     vdW  Elec       q    Type
REMARK                         _______ _______ _______ _____ _____    ______ ____
ROOT
ATOM      1  C   UNL     1       3.068  -5.733  -1.618  0.00  0.00    +0.156 C 
ATOM      2  C   UNL     1       4.217  -6.080  -0.664  0.00  0.00    +0.147 C 
ATOM      3  C   UNL     1       4.948  -7.311  -1.210  0.00  0.00    +0.243 C 
ATOM      4  N   UNL     1       5.381  -7.043  -2.582  0.00  0.00    -0.264 N 
ATOM      5  C   UNL     1       4.702  -6.202  -3.377  0.00  0.00    +0.302 C 
ATOM      6  O   UNL     1       5.098  -6.024  -4.512  0.00  0.00    -0.253 OA
ATOM      7  N   UNL     1       3.602  -5.551  -2.969  0.00  0.00    -0.289 N 
ATOM      8  H   UNL     1       6.175  -7.484  -2.924  0.00  0.00    +0.153 HD
ATOM      9  H   UNL     1       3.151  -4.948  -3.580  0.00  0.00    +0.151 HD
ENDROOT
BRANCH   1  13
ATOM     10  C   UNL     1       1.004  -3.084  -0.178  0.00  0.00    +0.137 A 
ATOM     11  C   UNL     1       1.907  -2.321  -0.848  0.00  0.00    +0.050 A 
ATOM     12  C   UNL     1       2.802  -3.210  -1.478  0.00  0.00    +0.047 A 
ATOM     13  C   UNL     1       2.404  -4.458  -1.163  0.00  0.00    +0.127 A 
ATOM     14  O   UNL     1       1.320  -4.378  -0.374  0.00  0.00    -0.458 OA
BRANCH  10  19
ATOM     15  C   UNL     1      -0.953  -1.233   2.439  0.00  0.00    +0.001 A 
ATOM     16  C   UNL     1      -2.243  -1.638   2.147  0.00  0.00    +0.002 A 
ATOM     17  C   UNL     1      -2.481  -2.512   1.101  0.00  0.00    +0.033 A 
ATOM     18  C   UNL     1      -1.430  -2.985   0.342  0.00  0.00    +0.137 A 
ATOM     19  C   UNL     1      -0.126  -2.580   0.631  0.00  0.00    +0.047 A 
ATOM     20  C   UNL     1       0.106  -1.698   1.688  0.00  0.00    +0.014 A 
BRANCH  18  21
ATOM     21  N   UNL     1      -1.686  -3.921  -0.777  0.00  0.00    +0.057 N 
ATOM     22  O   UNL     1      -2.799  -4.358  -0.957  0.00  0.00    -0.126 OA
ATOM     23  O   UNL     1      -0.782  -4.247  -1.510  0.00  0.00    -0.126 OA
ENDBRANCH  18  21
ENDBRANCH  10  19
ENDBRANCH   1  13
BRANCH   3  24
ATOM     24  C   UNL     1       6.170  -7.608  -0.337  0.00  0.00    +0.436 C 
ATOM     25  F   UNL     1       5.755  -7.856   0.976  0.00  0.00    -0.166 F 
ATOM     26  F   UNL     1       6.836  -8.732  -0.836  0.00  0.00    -0.166 F 
ATOM     27  F   UNL     1       7.033  -6.508  -0.354  0.00  0.00    -0.166 F 
ENDBRANCH   3  24
BRANCH   3  28
ATOM     28  O   UNL     1       4.066  -8.435  -1.197  0.00  0.00    -0.364 OA
ATOM     29  H   UNL     1       4.464  -9.251  -1.530  0.00  0.00    +0.212 HD
ENDBRANCH   3  28
BRANCH   2  30
ATOM     30  C   UNL     1       5.171  -4.917  -0.578  0.00  0.00    +0.173 C 
ATOM     31  O   UNL     1       5.995  -4.742  -1.450  0.00  0.00    -0.292 OA
BRANCH  30  32
ATOM     32  C   UNL     1       5.103  -3.993   0.565  0.00  0.00    +0.018 A 
ATOM     33  C   UNL     1       4.237  -4.257   1.632  0.00  0.00    +0.013 A 
ATOM     34  C   UNL     1       4.179  -3.388   2.700  0.00  0.00    +0.020 A 
ATOM     35  C   UNL     1       4.975  -2.254   2.718  0.00  0.00    +0.041 A 
ATOM     36  C   UNL     1       5.835  -1.986   1.665  0.00  0.00    +0.020 A 
ATOM     37  C   UNL     1       5.908  -2.849   0.594  0.00  0.00    +0.013 A 
ATOM     38 CL   UNL     1       4.894  -1.164   4.066  0.00  0.00    -0.084 Cl
ENDBRANCH  30  32
ENDBRANCH   2  30
TORSDOF 7
