REMARK  Name = ZINC66343536
REMARK  5 active torsions:
REMARK  status: ('A' for Active; 'I' for Inactive)
REMARK    1  A    between atoms: C_4  and  N_25
REMARK    2  A    between atoms: C_5  and  N_7
REMARK    3  A    between atoms: N_10  and  C_11
REMARK    4  A    between atoms: C_11  and  C_12
REMARK    5  A    between atoms: N_16  and  C_18
REMARK                            x       y       z     vdW  Elec       q    Type
REMARK                         _______ _______ _______ _____ _____    ______ ____
ROOT
ATOM      1  N   UNL     1       1.233  -2.083  -0.021  0.00  0.00    -0.268 N 
ATOM      2  C   UNL     1       0.082  -2.775   0.088  0.00  0.00    +0.304 C 
ATOM      3  O   UNL     1      -0.982  -2.187   0.102  0.00  0.00    -0.253 OA
ATOM      4  N   UNL     1       0.110  -4.119   0.181  0.00  0.00    -0.299 N 
ATOM      5  H   UNL     1       2.077  -2.555  -0.097  0.00  0.00    +0.156 HD
ATOM      6  H   UNL     1       0.959  -4.588   0.170  0.00  0.00    +0.150 HD
ENDROOT
BRANCH   1  11
ATOM      7  C   UNL     1       0.135   1.379  -0.617  0.00  0.00    +0.002 A 
ATOM      8  C   UNL     1       1.166   2.090  -0.032  0.00  0.00    +0.002 A 
ATOM      9  C   UNL     1       2.223   1.423   0.558  0.00  0.00    +0.025 A 
ATOM     10  C   UNL     1       2.251   0.036   0.565  0.00  0.00    +0.051 A 
ATOM     11  C   UNL     1       1.211  -0.681  -0.025  0.00  0.00    +0.056 A 
ATOM     12  C   UNL     1       0.155  -0.004  -0.614  0.00  0.00    +0.025 A 
BRANCH  10  13
ATOM     13  N   UNL     1       3.321  -0.641   1.162  0.00  0.00    -0.328 N 
ATOM     14  C   UNL     1       4.563  -1.044   0.487  0.00  0.00    +0.105 C 
ATOM     15  C   UNL     1       5.432  -1.780   1.528  0.00  0.00    +0.020 C 
ATOM     16  C   UNL     1       4.392  -2.248   2.580  0.00  0.00    +0.020 C 
ATOM     17  C   UNL     1       3.390  -1.063   2.572  0.00  0.00    +0.105 C 
ENDBRANCH  10  13
ENDBRANCH   1  11
BRANCH   4  18
ATOM     18  C   UNL     1      -1.142  -4.871   0.300  0.00  0.00    +0.110 C 
BRANCH  18  19
ATOM     19  C   UNL     1      -0.831  -6.367   0.390  0.00  0.00    +0.025 C 
ATOM     20  C   UNL     1      -0.295  -6.906  -0.963  0.00  0.00    +0.025 C 
ATOM     21  C   UNL     1      -0.687  -8.398  -0.921  0.00  0.00    +0.105 C 
ATOM     22  N   UNL     1      -1.798  -8.530   0.032  0.00  0.00    -0.330 N 
ATOM     23  C   UNL     1      -2.130  -7.194   0.562  0.00  0.00    +0.110 C 
BRANCH  22  24
ATOM     24  C   UNL     1      -2.437  -9.725   0.379  0.00  0.00    +0.030 A 
ATOM     25  C   UNL     1      -3.483  -9.715   1.292  0.00  0.00    +0.026 A 
ATOM     26  C   UNL     1      -4.113 -10.896   1.632  0.00  0.00    +0.040 A 
ATOM     27  C   UNL     1      -3.701 -12.090   1.064  0.00  0.00    +0.124 A 
ATOM     28  C   UNL     1      -2.658 -12.102   0.154  0.00  0.00    +0.040 A 
ATOM     29  C   UNL     1      -2.029 -10.922  -0.194  0.00  0.00    +0.026 A 
ATOM     30  F   UNL     1      -4.318 -13.244   1.399  0.00  0.00    -0.205 F 
ENDBRANCH  22  24
ENDBRANCH  18  19
ENDBRANCH   4  18
TORSDOF 5
