REMARK  Name = ZINC38684742
REMARK  15 active torsions:
REMARK  status: ('A' for Active; 'I' for Inactive)
REMARK    1  A    between atoms: C_1  and  C_2
REMARK    2  A    between atoms: C_2  and  C_3
REMARK    3  A    between atoms: C_2  and  C_4
REMARK    4  A    between atoms: C_4  and  C_5
REMARK    5  A    between atoms: C_5  and  O_6
REMARK    6  A    between atoms: O_6  and  C_7
REMARK    7  A    between atoms: C_11  and  C_13
REMARK    8  A    between atoms: C_18  and  O_27
REMARK    9  A    between atoms: C_22  and  N_26
REMARK   10  A    between atoms: C_23  and  C_24
REMARK   11  A    between atoms: O_27  and  C_28
REMARK   12  A    between atoms: C_28  and  C_30
REMARK   13  A    between atoms: C_30  and  C_31
REMARK   14  A    between atoms: C_34  and  O_37
REMARK   15  A    between atoms: O_37  and  C_38
REMARK                            x       y       z     vdW  Elec       q    Type
REMARK                         _______ _______ _______ _____ _____    ______ ____
ROOT
ATOM      1  C   UNL     1       7.052  -0.792  -4.900  0.00  0.00    +0.098 C 
ATOM      2  C   UNL     1       7.592   0.414  -5.622  0.00  0.00    +0.008 A 
ATOM      3  C   UNL     1       6.762   1.128  -6.469  0.00  0.00    +0.012 A 
ATOM      4  C   UNL     1       7.240   2.237  -7.139  0.00  0.00    +0.047 A 
ATOM      5  C   UNL     1       8.557   2.639  -6.965  0.00  0.00    +0.135 A 
ATOM      6  C   UNL     1       9.390   1.927  -6.118  0.00  0.00    +0.093 A 
ATOM      7  C   UNL     1       8.908   0.812  -5.444  0.00  0.00    +0.138 A 
ATOM      8  O   UNL     1       9.736   0.125  -4.619  0.00  0.00    -0.441 OA
ATOM      9  C   UNL     1       9.438  -1.137  -4.269  0.00  0.00    +0.199 C 
ATOM     10  C   UNL     1       8.185  -1.630  -4.377  0.00  0.00    +0.098 C 
ENDROOT
BRANCH   1  15
ATOM     11  C   UNL     1       4.067  -0.284  -2.640  0.00  0.00    +0.121 A 
ATOM     12  C   UNL     1       4.617   0.492  -1.629  0.00  0.00    +0.045 A 
ATOM     13  C   UNL     1       5.951   0.848  -1.682  0.00  0.00    +0.004 A 
ATOM     14  C   UNL     1       6.738   0.432  -2.740  0.00  0.00    +0.005 A 
ATOM     15  C   UNL     1       6.192  -0.341  -3.748  0.00  0.00    -0.031 A 
ATOM     16  C   UNL     1       4.860  -0.704  -3.698  0.00  0.00    +0.050 A 
BRANCH  11  17
ATOM     17  O   UNL     1       2.756  -0.636  -2.590  0.00  0.00    -0.492 OA
BRANCH  17  18
ATOM     18  C   UNL     1       2.000  -0.167  -1.472  0.00  0.00    +0.229 C 
BRANCH  18  19
ATOM     19  C   UNL     1       0.556  -0.660  -1.589  0.00  0.00    +0.044 C 
BRANCH  19  21
ATOM     20  C   UNL     1      -0.342   1.368  -0.440  0.00  0.00    +0.007 C 
ATOM     21  C   UNL     1      -0.253  -0.158  -0.392  0.00  0.00    -0.014 C 
ATOM     22  C   UNL     1      -1.662  -0.753  -0.443  0.00  0.00    +0.007 C 
ENDBRANCH  19  21
ENDBRANCH  18  19
ENDBRANCH  17  18
ENDBRANCH  11  17
ENDBRANCH   1  15
BRANCH   9  23
ATOM     23  N   UNL     1      10.435  -1.948  -3.786  0.00  0.00    -0.328 N 
ATOM     24  H   UNL     1      11.339  -1.607  -3.702  0.00  0.00    +0.145 HD
ATOM     25  H   UNL     1      10.235  -2.861  -3.529  0.00  0.00    +0.145 HD
ENDBRANCH   9  23
BRANCH  10  26
ATOM     26  C   UNL     1       7.933  -2.984  -3.985  0.00  0.00    +0.101 C 
ATOM     27  N   UNL     1       7.732  -4.058  -3.674  0.00  0.00    -0.191 NA
ENDBRANCH  10  26
BRANCH   5  28
ATOM     28  O   UNL     1       9.028   3.730  -7.624  0.00  0.00    -0.425 OA
BRANCH  28  29
ATOM     29  C   UNL     1       9.933   3.536  -8.597  0.00  0.00    +0.317 C 
ATOM     30  O   UNL     1      10.226   2.413  -8.935  0.00  0.00    -0.250 OA
BRANCH  29  31
ATOM     31  C   UNL     1      10.582   4.718  -9.269  0.00  0.00    +0.156 C 
BRANCH  31  32
ATOM     32  C   UNL     1      11.550   4.232 -10.317  0.00  0.00    -0.037 A 
ATOM     33  C   UNL     1      12.868   3.987  -9.978  0.00  0.00    +0.008 A 
ATOM     34  C   UNL     1      13.758   3.541 -10.936  0.00  0.00    +0.046 A 
ATOM     35  C   UNL     1      13.328   3.339 -12.239  0.00  0.00    +0.120 A 
ATOM     36  C   UNL     1      12.005   3.585 -12.577  0.00  0.00    +0.046 A 
ATOM     37  C   UNL     1      11.118   4.026 -11.614  0.00  0.00    +0.008 A 
BRANCH  35  38
ATOM     38  O   UNL     1      14.201   2.901 -13.184  0.00  0.00    -0.495 OA
ATOM     39  C   UNL     1      13.688   2.715 -14.505  0.00  0.00    +0.277 C 
ENDBRANCH  35  38
ENDBRANCH  31  32
ENDBRANCH  29  31
ENDBRANCH  28  29
ENDBRANCH   5  28
TORSDOF 12
