REMARK  Name = ZINC39775641
REMARK  6 active torsions:
REMARK  status: ('A' for Active; 'I' for Inactive)
REMARK    1  A    between atoms: C_1  and  C_2
REMARK    2  A    between atoms: C_2  and  O_3
REMARK    3  A    between atoms: O_3  and  C_4
REMARK    4  A    between atoms: C_7  and  C_11
REMARK    5  A    between atoms: C_8  and  O_10
REMARK    6  A    between atoms: N_12  and  N_13
REMARK                            x       y       z     vdW  Elec       q    Type
REMARK                         _______ _______ _______ _____ _____    ______ ____
ROOT
ATOM      1  N   UNL     1      -3.338  -7.976  -0.014  0.00  0.00    -0.206 N 
ATOM      2  C   UNL     1      -4.604  -8.524  -0.010  0.00  0.00    +0.227 C 
ATOM      3  N   UNL     1      -5.632  -7.708  -0.006  0.00  0.00    -0.220 NA
ATOM      4  C   UNL     1      -6.966  -8.296   0.078  0.00  0.00    +0.253 C 
ATOM      5  C   UNL     1      -6.867  -9.676  -0.557  0.00  0.00    +0.115 C 
ATOM      6  C   UNL     1      -7.906  -9.751  -1.434  0.00  0.00    +0.026 A 
ATOM      7  C   UNL     1      -8.401 -10.809  -2.234  0.00  0.00    +0.027 A 
ATOM      8  C   UNL     1      -9.472 -10.544  -3.031  0.00  0.00    +0.019 A 
ATOM      9  C   UNL     1     -10.107  -9.299  -3.107  0.00  0.00    +0.017 A 
ATOM     10  C   UNL     1      -9.722  -8.217  -2.379  0.00  0.00    +0.027 A 
ATOM     11  C   UNL     1      -8.572  -8.413  -1.481  0.00  0.00    +0.046 A 
ATOM     12  N   UNL     1      -7.998  -7.584  -0.663  0.00  0.00    -0.358 N 
ATOM     13 BR   UNL     1     -10.145 -11.947  -4.106  0.00  0.00    -0.050 Br
ATOM     14  N   UNL     1      -5.825 -10.477  -0.313  0.00  0.00    -0.171 NA
ATOM     15  N   UNL     1      -4.715  -9.874  -0.017  0.00  0.00    -0.247 N 
ATOM     16  H   UNL     1      -2.559  -8.554  -0.021  0.00  0.00    +0.177 HD
ATOM     17  H   UNL     1      -3.939 -10.409   0.212  0.00  0.00    +0.192 HD
ATOM     18  H   UNL     1      -8.220  -6.645  -0.562  0.00  0.00    +0.162 HD
ENDROOT
BRANCH   1  20
ATOM     19  C   UNL     1      -1.986  -6.067  -0.011  0.00  0.00    +0.142 C 
ATOM     20  N   UNL     1      -3.178  -6.584  -0.008  0.00  0.00    -0.187 NA
BRANCH  19  24
ATOM     21  C   UNL     1      -1.498  -1.848   0.006  0.00  0.00    +0.124 A 
ATOM     22  C   UNL     1      -0.383  -2.677  -0.003  0.00  0.00    +0.046 A 
ATOM     23  C   UNL     1      -0.536  -4.046  -0.009  0.00  0.00    +0.016 A 
ATOM     24  C   UNL     1      -1.817  -4.604  -0.005  0.00  0.00    +0.036 A 
ATOM     25  C   UNL     1      -2.941  -3.766   0.005  0.00  0.00    +0.129 A 
ATOM     26  C   UNL     1      -2.774  -2.392   0.016  0.00  0.00    +0.091 A 
BRANCH  25  27
ATOM     27  O   UNL     1      -4.190  -4.301   0.009  0.00  0.00    -0.506 OA
ATOM     28  H   UNL     1      -4.547  -4.460   0.893  0.00  0.00    +0.292 HD
ENDBRANCH  25  27
BRANCH  21  29
ATOM     29  O   UNL     1      -1.339  -0.499   0.012  0.00  0.00    -0.492 OA
BRANCH  29  31
ATOM     30  C   UNL     1      -0.019   1.526   0.010  0.00  0.00    +0.048 C 
ATOM     31  C   UNL     1       0.002  -0.004   0.002  0.00  0.00    +0.225 C 
ENDBRANCH  29  31
ENDBRANCH  21  29
ENDBRANCH  19  24
ENDBRANCH   1  20
TORSDOF 5
