REMARK  Name = ZINC22024833
REMARK  4 active torsions:
REMARK  status: ('A' for Active; 'I' for Inactive)
REMARK    1  A    between atoms: C_1  and  N_2
REMARK    2  A    between atoms: N_2  and  C_3
REMARK    3  A    between atoms: N_2  and  C_16
REMARK    4  A    between atoms: C_3  and  C_4
REMARK                            x       y       z     vdW  Elec       q    Type
REMARK                         _______ _______ _______ _____ _____    ______ ____
ROOT
ATOM      1  C   UNL     1      -0.400  -2.468   1.278  0.00  0.00    -0.095 C 
ATOM      2  N   UNL     1      -1.069  -2.185   0.001  0.00  0.00    +0.387 N 
ATOM      3  H   UNL     1      -0.405  -2.520  -0.810  0.00  0.00    -0.081 HD
ENDROOT
BRANCH   2   4
ATOM      4  C   UNL     1      -2.329  -2.932  -0.110  0.00  0.00    -0.037 C 
ATOM      5  C   UNL     1      -3.357  -2.331   0.847  0.00  0.00    -0.010 C 
ATOM      6  C   UNL     1      -4.718  -2.978   0.562  0.00  0.00    +0.003 C 
ATOM      7  C   UNL     1      -5.214  -2.481  -0.794  0.00  0.00    +0.035 C 
ATOM      8  C   UNL     1      -4.149  -2.660  -1.845  0.00  0.00    -0.046 A 
ATOM      9  C   UNL     1      -2.824  -2.863  -1.531  0.00  0.00    -0.058 A 
ATOM     10  C   UNL     1      -1.891  -3.013  -2.549  0.00  0.00    +0.002 A 
ATOM     11  C   UNL     1      -2.282  -2.965  -3.871  0.00  0.00    +0.000 A 
ATOM     12  C   UNL     1      -3.613  -2.765  -4.186  0.00  0.00    +0.000 A 
ATOM     13  C   UNL     1      -4.541  -2.613  -3.176  0.00  0.00    +0.004 A 
ENDBRANCH   2   4
BRANCH   2  14
ATOM     14  C   UNL     1      -1.295  -0.744  -0.167  0.00  0.00    -0.001 C 
BRANCH  14  15
ATOM     15  C   UNL     1       0.001  -0.072  -0.542  0.00  0.00    +0.117 A 
ATOM     16  N   UNL     1      -0.004   1.272  -0.742  0.00  0.00    -0.196 NA
ATOM     17  C   UNL     1       1.134   1.922  -1.080  0.00  0.00    +0.281 A 
ATOM     18  O   UNL     1       1.144   3.126  -1.263  0.00  0.00    -0.265 OA
ATOM     19  C   UNL     1       2.357   1.119  -1.219  0.00  0.00    +0.067 A 
ATOM     20  C   UNL     1       3.580   1.691  -1.563  0.00  0.00    +0.017 A 
ATOM     21  C   UNL     1       4.688   0.899  -1.681  0.00  0.00    +0.021 A 
ATOM     22  C   UNL     1       4.608  -0.471  -1.459  0.00  0.00    +0.043 A 
ATOM     23  C   UNL     1       3.411  -1.061  -1.116  0.00  0.00    +0.048 A 
ATOM     24  C   UNL     1       2.266  -0.273  -0.991  0.00  0.00    +0.080 A 
ATOM     25  N   UNL     1       1.065  -0.807  -0.657  0.00  0.00    -0.234 NA
ATOM     26 CL   UNL     1       6.034  -1.450  -1.615  0.00  0.00    -0.083 Cl
ENDBRANCH  14  15
ENDBRANCH   2  14
TORSDOF 3
