REMARK  Name = ZINC24421806
REMARK  13 active torsions:
REMARK  status: ('A' for Active; 'I' for Inactive)
REMARK    1  A    between atoms: C_1  and  C_2
REMARK    2  A    between atoms: C_5  and  C_8
REMARK    3  A    between atoms: C_10  and  C_13
REMARK    4  A    between atoms: C_13  and  S_14
REMARK    5  A    between atoms: S_14  and  C_15
REMARK    6  A    between atoms: C_18  and  C_21
REMARK    7  A    between atoms: N_19  and  N_20
REMARK    8  A    between atoms: C_21  and  O_22
REMARK    9  A    between atoms: O_22  and  C_23
REMARK   10  A    between atoms: C_25  and  C_32
REMARK   11  A    between atoms: C_28  and  C_29
REMARK   12  A    between atoms: C_29  and  C_30
REMARK   13  A    between atoms: C_29  and  C_31
REMARK                            x       y       z     vdW  Elec       q    Type
REMARK                         _______ _______ _______ _____ _____    ______ ____
ROOT
ATOM      1  C   UNL     1       1.243  -0.433  -0.012  0.00  0.00    +0.209 A 
ATOM      2  N   UNL     1       0.002  -0.004   0.002  0.00  0.00    -0.121 NA
ATOM      3  N   UNL     1      -0.015   1.281   0.009  0.00  0.00    -0.128 NA
ATOM      4  C   UNL     1       1.202   1.745   0.000  0.00  0.00    +0.189 A 
ATOM      5  N   UNL     1       2.047   0.670  -0.014  0.00  0.00    -0.225 N 
ENDROOT
BRANCH   5   6
ATOM      6  N   UNL     1       3.413   0.695  -0.027  0.00  0.00    -0.295 N 
ATOM      7  H   UNL     1       3.946   1.657  -0.027  0.00  0.00    +0.163 HD
ATOM      8  H   UNL     1       3.980  -0.248  -0.037  0.00  0.00    +0.163 HD
ENDBRANCH   5   6
BRANCH   1   9
ATOM      9  S   UNL     1       1.770  -2.114  -0.026  0.00  0.00    -0.075 S 
BRANCH   9  10
ATOM     10  C   UNL     1       0.163  -2.948  -0.015  0.00  0.00    +0.176 C 
BRANCH  10  13
ATOM     11  C   UNL     1       0.658  -6.465   0.534  0.00  0.00    +0.202 A 
ATOM     12  N   UNL     1       0.493  -5.215   1.024  0.00  0.00    -0.191 NA
ATOM     13  C   UNL     1       0.371  -4.440  -0.025  0.00  0.00    +0.238 A 
ATOM     14  O   UNL     1       0.471  -5.221  -1.105  0.00  0.00    -0.337 OA
ATOM     15  N   UNL     1       0.635  -6.375  -0.770  0.00  0.00    -0.056 NA
BRANCH  11  20
ATOM     16  C   UNL     1       1.355 -11.280   3.617  0.00  0.00    +0.044 C 
ATOM     17  C   UNL     1       1.172 -10.020   2.811  0.00  0.00    -0.050 A 
ATOM     18  C   UNL     1       1.168 -10.081   1.429  0.00  0.00    +0.004 A 
ATOM     19  C   UNL     1       1.002  -8.930   0.685  0.00  0.00    +0.012 A 
ATOM     20  C   UNL     1       0.837  -7.706   1.329  0.00  0.00    +0.022 A 
ATOM     21  C   UNL     1       0.847  -7.649   2.721  0.00  0.00    +0.012 A 
ATOM     22  C   UNL     1       1.009  -8.807   3.455  0.00  0.00    +0.004 A 
ENDBRANCH  11  20
ENDBRANCH  10  13
ENDBRANCH   9  10
ENDBRANCH   1   9
BRANCH   4  23
ATOM     23  C   UNL     1       1.605   3.197   0.004  0.00  0.00    +0.306 C 
BRANCH  23  24
ATOM     24  O   UNL     1       1.745   3.649   1.352  0.00  0.00    -0.484 OA
BRANCH  24  25
ATOM     25  C   UNL     1       2.106   4.947   1.533  0.00  0.00    +0.125 A 
ATOM     26  C   UNL     1       2.321   5.768   0.435  0.00  0.00    +0.049 A 
ATOM     27  C   UNL     1       2.689   7.086   0.622  0.00  0.00    -0.047 A 
ATOM     28  C   UNL     1       2.842   7.588   1.902  0.00  0.00    +0.004 A 
ATOM     29  C   UNL     1       2.628   6.772   2.997  0.00  0.00    +0.008 A 
ATOM     30  C   UNL     1       2.255   5.454   2.816  0.00  0.00    -0.003 A 
ATOM     31  C   UNL     1       2.923   7.979  -0.569  0.00  0.00    +0.044 C 
BRANCH  30  32
ATOM     32  C   UNL     1       2.016   4.566   4.010  0.00  0.00    +0.016 C 
ATOM     33  C   UNL     1       3.295   4.482   4.846  0.00  0.00    +0.012 C 
ATOM     34  C   UNL     1       0.887   5.150   4.861  0.00  0.00    +0.012 C 
ENDBRANCH  30  32
ENDBRANCH  24  25
ENDBRANCH  23  24
ENDBRANCH   4  23
TORSDOF 9
