REMARK  Name = ZINC48914098
REMARK  7 active torsions:
REMARK  status: ('A' for Active; 'I' for Inactive)
REMARK    1  A    between atoms: C_1  and  C_2
REMARK    2  A    between atoms: C_2  and  C_3
REMARK    3  A    between atoms: C_7  and  C_23
REMARK    4  A    between atoms: N_10  and  C_11
REMARK    5  A    between atoms: C_11  and  C_13
REMARK    6  A    between atoms: C_11  and  C_15
REMARK    7  A    between atoms: C_13  and  N_14
REMARK                            x       y       z     vdW  Elec       q    Type
REMARK                         _______ _______ _______ _____ _____    ______ ____
ROOT
ATOM      1  C   UNL     1      -2.112   1.039  -1.543  0.00  0.00    +0.070 C 
ENDROOT
BRANCH   1   2
ATOM      2  C   UNL     1      -2.330   1.703  -0.208  0.00  0.00    -0.029 A 
ATOM      3  C   UNL     1      -3.066   1.061   0.770  0.00  0.00    +0.025 A 
ATOM      4  C   UNL     1      -3.268   1.670   1.996  0.00  0.00    +0.043 A 
ATOM      5  C   UNL     1      -2.732   2.922   2.243  0.00  0.00    +0.040 A 
ATOM      6  C   UNL     1      -1.996   3.563   1.263  0.00  0.00    +0.043 A 
ATOM      7  C   UNL     1      -1.791   2.951   0.039  0.00  0.00    +0.025 A 
ATOM      8 CL   UNL     1      -1.324   5.134   1.571  0.00  0.00    -0.083 Cl
ATOM      9 CL   UNL     1      -4.192   0.864   3.224  0.00  0.00    -0.083 Cl
ENDBRANCH   1   2
BRANCH   1  15
ATOM     10  C   UNL     1      -0.664  -0.357  -0.194  0.00  0.00    +0.083 C 
ATOM     11  C   UNL     1      -0.098  -1.772  -0.050  0.00  0.00    +0.179 C 
ATOM     12  O   UNL     1      -1.177  -2.699   0.096  0.00  0.00    -0.374 OA
ATOM     13  C   UNL     1      -2.097  -2.689  -0.999  0.00  0.00    +0.129 C 
ATOM     14  C   UNL     1      -2.683  -1.282  -1.153  0.00  0.00    +0.116 C 
ATOM     15  N   UNL     1      -1.589  -0.318  -1.336  0.00  0.00    -0.290 NA
ATOM     16  C   UNL     1      -1.366  -3.082  -2.284  0.00  0.00    +0.039 C 
BRANCH  10  18
ATOM     17  C   UNL     1       1.357   0.704   0.822  0.00  0.00    +0.005 C 
ATOM     18  C   UNL     1       0.482   0.629  -0.431  0.00  0.00    +0.018 C 
ENDBRANCH  10  18
ENDBRANCH   1  15
BRANCH   1  19
ATOM     19  C   UNL     1      -3.440   0.964  -2.299  0.00  0.00    -0.063 C 
BRANCH  19  20
ATOM     20  N   UNL     1      -3.245   0.238  -3.561  0.00  0.00    +0.379 N 
ATOM     21  H   UNL     1      -2.526   0.693  -4.104  0.00  0.00    -0.090 HD
ATOM     22  H   UNL     1      -2.966  -0.711  -3.363  0.00  0.00    -0.090 HD
ATOM     23  H   UNL     1      -4.108   0.233  -4.083  0.00  0.00    -0.090 HD
ENDBRANCH  19  20
ENDBRANCH   1  19
TORSDOF 5
