REMARK  Name = ZINC49834187
REMARK  6 active torsions:
REMARK  status: ('A' for Active; 'I' for Inactive)
REMARK    1  A    between atoms: C_1  and  C_2
REMARK    2  A    between atoms: C_2  and  C_3
REMARK    3  A    between atoms: C_3  and  C_5
REMARK    4  A    between atoms: C_3  and  O_8
REMARK    5  A    between atoms: O_8  and  C_9
REMARK    6  A    between atoms: C_19  and  C_21
REMARK                            x       y       z     vdW  Elec       q    Type
REMARK                         _______ _______ _______ _____ _____    ______ ____
ROOT
ATOM      1  C   UNL     1       0.176   1.124  -2.909  0.00  0.00    +0.131 A 
ATOM      2  C   UNL     1       1.151   1.913  -2.374  0.00  0.00    +0.063 A 
ATOM      3  C   UNL     1       1.386   3.181  -2.858  0.00  0.00    +0.044 A 
ATOM      4  C   UNL     1       0.640   3.730  -3.925  0.00  0.00    +0.093 A 
ATOM      5  C   UNL     1      -0.363   2.896  -4.463  0.00  0.00    +0.049 A 
ATOM      6  C   UNL     1      -0.618   1.602  -3.992  0.00  0.00    +0.033 A 
ATOM      7  C   UNL     1      -1.692   0.903  -4.689  0.00  0.00    +0.020 A 
ATOM      8  C   UNL     1      -2.333   1.518  -5.693  0.00  0.00    +0.046 A 
ATOM      9  S   UNL     1      -1.538   3.112  -5.774  0.00  0.00    -0.094 S 
ATOM     10  N   UNL     1       0.985   4.984  -4.290  0.00  0.00    -0.243 NA
ATOM     11  C   UNL     1       1.941   5.654  -3.706  0.00  0.00    +0.076 A 
ATOM     12  S   UNL     1       2.513   4.497  -2.469  0.00  0.00    -0.072 S 
ATOM     13  C   UNL     1       2.436   7.046  -4.000  0.00  0.00    +0.073 C 
ENDROOT
BRANCH   1  14
ATOM     14  O   UNL     1      -0.036  -0.123  -2.412  0.00  0.00    -0.481 OA
BRANCH  14  15
ATOM     15  C   UNL     1       0.765  -0.522  -1.298  0.00  0.00    +0.233 C 
BRANCH  15  16
ATOM     16  C   UNL     1       1.036  -2.002  -1.378  0.00  0.00    +0.104 C 
ATOM     17  N   UNL     1       2.107  -2.511  -0.793  0.00  0.00    -0.388 N 
ATOM     18  N   UNL     1       0.204  -2.792  -2.034  0.00  0.00    -0.345 N 
ATOM     19  H   UNL     1       2.718  -1.932  -0.312  0.00  0.00    +0.157 HD
ATOM     20  H   UNL     1      -0.582  -2.419  -2.464  0.00  0.00    +0.143 HD
ATOM     21  H   UNL     1       0.378  -3.745  -2.086  0.00  0.00    +0.143 HD
ATOM     22  H   UNL     1       2.281  -3.464  -0.845  0.00  0.00    +0.157 HD
ENDBRANCH  15  16
BRANCH  15  24
ATOM     23  C   UNL     1      -0.143   1.304   0.145  0.00  0.00    +0.008 C 
ATOM     24  C   UNL     1       0.022  -0.210   0.003  0.00  0.00    +0.049 C 
ENDBRANCH  15  24
ENDBRANCH  14  15
ENDBRANCH   1  14
TORSDOF 4
