REMARK  Name = ZINC05322913
REMARK  8 active torsions:
REMARK  status: ('A' for Active; 'I' for Inactive)
REMARK    1  A    between atoms: C_1  and  C_2
REMARK    2  A    between atoms: C_6  and  O_28
REMARK    3  A    between atoms: C_12  and  C_13
REMARK    4  A    between atoms: C_13  and  C_14
REMARK    5  A    between atoms: N_16  and  C_17
REMARK    6  A    between atoms: C_17  and  C_18
REMARK    7  A    between atoms: C_21  and  S_24
REMARK    8  A    between atoms: S_24  and  N_27
REMARK                            x       y       z     vdW  Elec       q    Type
REMARK                         _______ _______ _______ _____ _____    ______ ____
ROOT
ATOM      1  C   UNL     1      -1.394   0.238   2.940  0.00  0.00    +0.218 C 
ATOM      2  O   UNL     1      -2.317  -0.153   2.257  0.00  0.00    -0.275 OA
ATOM      3  N   UNL     1      -1.638   0.871   4.104  0.00  0.00    -0.311 N 
ATOM      4  H   UNL     1      -0.900   1.183   4.650  0.00  0.00    +0.149 HD
ENDROOT
BRANCH   1   5
ATOM      5  C   UNL     1       0.025   0.016   2.486  0.00  0.00    +0.138 C 
BRANCH   5  17
ATOM      6  C   UNL     1      -0.018   1.503   0.010  0.00  0.00    +0.045 C 
ATOM      7  C   UNL     1       0.002  -0.004   0.002  0.00  0.00    -0.029 A 
ATOM      8  C   UNL     1      -0.006  -0.749  -1.258  0.00  0.00    +0.021 A 
ATOM      9  C   UNL     1      -0.021  -0.083  -2.489  0.00  0.00    +0.015 A 
ATOM     10  C   UNL     1      -0.022  -0.802  -3.649  0.00  0.00    +0.046 A 
ATOM     11  C   UNL     1      -0.003  -2.195  -3.616  0.00  0.00    +0.120 A 
ATOM     12  C   UNL     1       0.017  -2.871  -2.407  0.00  0.00    +0.092 A 
ATOM     13  C   UNL     1       0.019  -2.156  -1.219  0.00  0.00    +0.143 A 
ATOM     14  O   UNL     1       0.039  -2.795  -0.029  0.00  0.00    -0.422 OA
ATOM     15  C   UNL     1       0.041  -2.117   1.129  0.00  0.00    +0.341 A 
ATOM     16  O   UNL     1       0.059  -2.736   2.178  0.00  0.00    -0.245 OA
ATOM     17  C   UNL     1       0.023  -0.708   1.164  0.00  0.00    +0.049 A 
BRANCH  11  18
ATOM     18  O   UNL     1      -0.004  -2.896  -4.779  0.00  0.00    -0.507 OA
ATOM     19  H   UNL     1      -0.888  -3.111  -5.108  0.00  0.00    +0.292 HD
ENDBRANCH  11  18
ENDBRANCH   5  17
ENDBRANCH   1   5
BRANCH   3  20
ATOM     20  C   UNL     1      -3.018   1.086   4.546  0.00  0.00    +0.139 C 
BRANCH  20  21
ATOM     21  C   UNL     1      -3.016   1.810   5.868  0.00  0.00    -0.030 A 
ATOM     22  C   UNL     1      -3.000   1.092   7.049  0.00  0.00    +0.007 A 
ATOM     23  C   UNL     1      -2.994   1.756   8.261  0.00  0.00    +0.029 A 
ATOM     24  C   UNL     1      -3.011   3.138   8.293  0.00  0.00    +0.105 A 
ATOM     25  C   UNL     1      -3.032   3.856   7.112  0.00  0.00    +0.029 A 
ATOM     26  C   UNL     1      -3.034   3.192   5.899  0.00  0.00    +0.007 A 
BRANCH  24  27
ATOM     27  S   UNL     1      -3.007   3.984   9.838  0.00  0.00    +0.056 S 
ATOM     28  O   UNL     1      -2.435   3.094  10.787  0.00  0.00    -0.153 OA
ATOM     29  O   UNL     1      -2.475   5.278   9.591  0.00  0.00    -0.153 OA
BRANCH  27  30
ATOM     30  N   UNL     1      -4.587   4.199  10.283  0.00  0.00    -0.204 NA
ATOM     31  H   UNL     1      -4.827   4.230  11.223  0.00  0.00    +0.144 HD
ATOM     32  H   UNL     1      -5.274   4.294   9.604  0.00  0.00    +0.144 HD
ENDBRANCH  27  30
ENDBRANCH  24  27
ENDBRANCH  20  21
ENDBRANCH   3  20
TORSDOF 7
