REMARK  Name = ZINC12052595
REMARK  7 active torsions:
REMARK  status: ('A' for Active; 'I' for Inactive)
REMARK    1  A    between atoms: C_1  and  C_2
REMARK    2  A    between atoms: N_4  and  C_5
REMARK    3  A    between atoms: C_8  and  C_10
REMARK    4  A    between atoms: C_10  and  N_53
REMARK    5  A    between atoms: C_17  and  C_21
REMARK    6  A    between atoms: C_21  and  C_23
REMARK    7  A    between atoms: C_21  and  O_31
REMARK                            x       y       z     vdW  Elec       q    Type
REMARK                         _______ _______ _______ _____ _____    ______ ____
ROOT
ATOM      1  C   UNL     1      -2.402   0.491   1.262  0.00  0.00    -0.036 C 
ATOM      2  C   UNL     1      -3.497   0.686   0.235  0.00  0.00    +0.210 C 
ATOM      3  O   UNL     1      -3.080   0.206  -1.049  0.00  0.00    -0.494 OA
ATOM      4  C   UNL     1      -2.376   1.094  -1.803  0.00  0.00    +0.122 A 
ATOM      5  C   UNL     1      -2.946   1.650  -2.939  0.00  0.00    +0.046 A 
ATOM      6  C   UNL     1      -2.242   2.589  -3.668  0.00  0.00    +0.010 A 
ATOM      7  C   UNL     1      -0.975   2.974  -3.268  0.00  0.00    -0.014 A 
ATOM      8  C   UNL     1      -0.402   2.412  -2.141  0.00  0.00    +0.011 A 
ATOM      9  C   UNL     1      -1.103   1.468  -1.417  0.00  0.00    -0.022 A 
ATOM     10  C   UNL     1      -0.479   0.830  -0.192  0.00  0.00    -0.039 C 
ATOM     11  N   UNL     1      -1.207   1.324   0.999  0.00  0.00    +0.388 N 
ATOM     12  H   UNL     1      -1.511   2.289   0.823  0.00  0.00    -0.081 HD
ENDROOT
BRANCH  11  13
ATOM     13  C   UNL     1      -0.318   1.312   2.174  0.00  0.00    -0.035 C 
BRANCH  13  17
ATOM     14  C   UNL     1      -2.070   3.650   5.177  0.00  0.00    +0.072 A 
ATOM     15  C   UNL     1      -2.349   2.317   5.236  0.00  0.00    +0.031 A 
ATOM     16  C   UNL     1      -1.812   1.481   4.275  0.00  0.00    +0.011 A 
ATOM     17  C   UNL     1      -1.016   2.008   3.313  0.00  0.00    -0.025 A 
ATOM     18  S   UNL     1      -1.016   3.742   3.740  0.00  0.00    -0.080 S 
BRANCH  14  22
ATOM     19  C   UNL     1      -2.567   7.053   6.704  0.00  0.00    +0.109 C 
ATOM     20  C   UNL     1      -2.106   5.946   5.792  0.00  0.00    +0.214 C 
ATOM     21  O   UNL     1      -1.383   6.196   4.851  0.00  0.00    -0.276 OA
ATOM     22  N   UNL     1      -2.498   4.677   6.022  0.00  0.00    -0.280 N 
ATOM     23  H   UNL     1      -3.076   4.476   6.775  0.00  0.00    +0.155 HD
ENDBRANCH  14  22
ENDBRANCH  13  17
ENDBRANCH  11  13
BRANCH   7  24
ATOM     24  C   UNL     1      -0.217   4.006  -4.062  0.00  0.00    +0.179 C 
BRANCH  24  25
ATOM     25  C   UNL     1       0.539   3.329  -5.176  0.00  0.00    +0.039 A 
ATOM     26  C   UNL     1      -0.139   2.864  -6.290  0.00  0.00    +0.131 A 
ATOM     27  C   UNL     1       0.557   2.241  -7.312  0.00  0.00    +0.039 A 
ATOM     28  C   UNL     1       1.927   2.084  -7.221  0.00  0.00    +0.004 A 
ATOM     29  C   UNL     1       2.603   2.548  -6.108  0.00  0.00    +0.020 A 
ATOM     30  C   UNL     1       1.911   3.176  -5.088  0.00  0.00    +0.050 A 
ATOM     31 CL   UNL     1       2.762   3.765  -3.695  0.00  0.00    -0.083 Cl
ATOM     32  F   UNL     1      -1.478   3.017  -6.379  0.00  0.00    -0.205 F 
ENDBRANCH  24  25
BRANCH  24  33
ATOM     33  O   UNL     1      -1.136   4.951  -4.616  0.00  0.00    -0.382 OA
ATOM     34  H   UNL     1      -1.850   4.550  -5.129  0.00  0.00    +0.211 HD
ENDBRANCH  24  33
ENDBRANCH   7  24
TORSDOF 6
