REMARK  Name = ZINC23888397
REMARK  10 active torsions:
REMARK  status: ('A' for Active; 'I' for Inactive)
REMARK    1  A    between atoms: C_1  and  C_2
REMARK    2  A    between atoms: C_2  and  C_3
REMARK    3  A    between atoms: C_8  and  O_35
REMARK    4  A    between atoms: C_9  and  C_11
REMARK    5  A    between atoms: C_11  and  C_13
REMARK    6  A    between atoms: C_11  and  N_22
REMARK    7  A    between atoms: C_16  and  C_19
REMARK    8  A    between atoms: C_19  and  C_20
REMARK    9  A    between atoms: C_19  and  C_21
REMARK   10  A    between atoms: N_25  and  C_28
REMARK                            x       y       z     vdW  Elec       q    Type
REMARK                         _______ _______ _______ _____ _____    ______ ____
ROOT
ATOM      1  C   UNL     1       2.490   1.048  -0.016  0.00  0.00    +0.129 C 
ENDROOT
BRANCH   1   8
ATOM      2  C   UNL     1       3.465   0.069  -5.817  0.00  0.00    +0.152 A 
ATOM      3  N   UNL     1       3.744   1.280  -5.339  0.00  0.00    -0.205 NA
ATOM      4  C   UNL     1       3.472   1.314  -4.063  0.00  0.00    +0.199 A 
ATOM      5  N   UNL     1       2.998   0.102  -3.665  0.00  0.00    -0.173 N 
ATOM      6  N   UNL     1       3.012  -0.681  -4.849  0.00  0.00    -0.147 NA
ATOM      7  C   UNL     1       2.666  -0.039  -2.339  0.00  0.00    +0.228 A 
ATOM      8  C   UNL     1       2.798   0.987  -1.490  0.00  0.00    +0.076 A 
ATOM      9  S   UNL     1       3.441   2.263  -2.562  0.00  0.00    -0.047 S 
BRANCH   2  11
ATOM     10  C   UNL     1       2.359  -0.087  -8.031  0.00  0.00    +0.012 C 
ATOM     11  C   UNL     1       3.644  -0.367  -7.248  0.00  0.00    +0.075 C 
ENDBRANCH   2  11
BRANCH   7  12
ATOM     12  O   UNL     1       2.194  -1.232  -1.886  0.00  0.00    -0.492 OA
ATOM     13  H   UNL     1       1.926  -1.351  -0.826  0.00  0.00    +0.294 HD
ENDBRANCH   7  12
ENDBRANCH   1   8
BRANCH   1  14
ATOM     14  C   UNL     1       1.236   1.854   0.203  0.00  0.00    -0.025 A 
ATOM     15  C   UNL     1       0.055   1.218   0.536  0.00  0.00    +0.006 A 
ATOM     16  C   UNL     1      -1.097   1.958   0.731  0.00  0.00    +0.004 A 
ATOM     17  C   UNL     1      -1.065   3.334   0.603  0.00  0.00    -0.045 A 
ATOM     18  C   UNL     1       0.117   3.970   0.269  0.00  0.00    +0.004 A 
ATOM     19  C   UNL     1       1.267   3.230   0.069  0.00  0.00    +0.006 A 
BRANCH  17  20
ATOM     20  C   UNL     1      -2.319   4.140   0.821  0.00  0.00    +0.013 C 
ATOM     21  C   UNL     1      -3.391   3.696  -0.177  0.00  0.00    +0.012 C 
ATOM     22  C   UNL     1      -2.826   3.919   2.247  0.00  0.00    +0.012 C 
ENDBRANCH  17  20
ENDBRANCH   1  14
BRANCH   1  23
ATOM     23  N   UNL     1       3.610   1.682   0.692  0.00  0.00    -0.288 NA
ATOM     24  C   UNL     1       4.867   0.965   0.438  0.00  0.00    +0.104 C 
ATOM     25  C   UNL     1       6.019   1.701   1.127  0.00  0.00    +0.120 C 
ATOM     26  N   UNL     1       5.748   1.790   2.569  0.00  0.00    -0.325 N 
ATOM     27  C   UNL     1       4.491   2.507   2.822  0.00  0.00    +0.120 C 
ATOM     28  C   UNL     1       3.339   1.771   2.134  0.00  0.00    +0.104 C 
BRANCH  26  29
ATOM     29  C   UNL     1       6.814   2.393   3.243  0.00  0.00    +0.065 A 
ATOM     30  C   UNL     1       6.788   2.507   4.626  0.00  0.00    +0.026 A 
ATOM     31  C   UNL     1       7.845   3.100   5.290  0.00  0.00    +0.002 A 
ATOM     32  C   UNL     1       8.924   3.590   4.577  0.00  0.00    +0.003 A 
ATOM     33  C   UNL     1       8.953   3.484   3.199  0.00  0.00    +0.040 A 
ATOM     34  C   UNL     1       7.901   2.887   2.528  0.00  0.00    +0.144 A 
ATOM     35  F   UNL     1       7.928   2.785   1.181  0.00  0.00    -0.204 F 
ENDBRANCH  26  29
ENDBRANCH   1  23
TORSDOF 7
