REMARK  Name = ZINC20736755
REMARK  7 active torsions:
REMARK  status: ('A' for Active; 'I' for Inactive)
REMARK    1  A    between atoms: C_1  and  O_2
REMARK    2  A    between atoms: O_2  and  C_3
REMARK    3  A    between atoms: C_3  and  C_5
REMARK    4  A    between atoms: C_5  and  C_7
REMARK    5  A    between atoms: C_5  and  N_14
REMARK    6  A    between atoms: C_7  and  C_8
REMARK    7  A    between atoms: C_26  and  C_28
REMARK                            x       y       z     vdW  Elec       q    Type
REMARK                         _______ _______ _______ _____ _____    ______ ____
ROOT
ATOM      1  N   UNL     1      -2.685  -2.394   2.240  0.00  0.00    -0.286 N 
ATOM      2  C   UNL     1      -3.345  -2.710   1.108  0.00  0.00    +0.304 C 
ATOM      3  O   UNL     1      -2.812  -2.547   0.028  0.00  0.00    -0.253 OA
ATOM      4  N   UNL     1      -4.596  -3.208   1.174  0.00  0.00    -0.273 N 
ATOM      5  C   UNL     1      -5.287  -3.675  -0.037  0.00  0.00    +0.116 C 
ATOM      6  C   UNL     1      -5.540  -5.183   0.077  0.00  0.00    +0.076 C 
ATOM      7  C   UNL     1      -6.078  -5.484   1.454  0.00  0.00    +0.066 A 
ATOM      8  C   UNL     1      -5.971  -4.652   2.512  0.00  0.00    +0.064 A 
ATOM      9  N   UNL     1      -6.566  -5.266   3.570  0.00  0.00    -0.346 N 
ATOM     10  H   UNL     1      -6.646  -4.915   4.471  0.00  0.00    +0.167 HD
ATOM     11  C   UNL     1      -7.024  -6.460   3.127  0.00  0.00    +0.197 A 
ATOM     12  N   UNL     1      -6.727  -6.580   1.859  0.00  0.00    -0.240 NA
ATOM     13  C   UNL     1      -5.305  -3.304   2.463  0.00  0.00    +0.159 C 
ATOM     14  H   UNL     1      -3.138  -2.447   3.096  0.00  0.00    +0.151 HD
ENDROOT
BRANCH  13  15
ATOM     15  C   UNL     1      -6.346  -2.218   2.558  0.00  0.00    +0.015 A 
ATOM     16  C   UNL     1      -7.598  -2.503   3.070  0.00  0.00    +0.028 A 
ATOM     17  C   UNL     1      -8.553  -1.506   3.158  0.00  0.00    +0.041 A 
ATOM     18  C   UNL     1      -8.255  -0.223   2.733  0.00  0.00    +0.023 A 
ATOM     19  C   UNL     1      -7.004   0.063   2.221  0.00  0.00    +0.040 A 
ATOM     20  C   UNL     1      -6.046  -0.933   2.139  0.00  0.00    +0.129 A 
ATOM     21  F   UNL     1      -4.821  -0.652   1.644  0.00  0.00    -0.205 F 
ATOM     22 CL   UNL     1     -10.125  -1.865   3.800  0.00  0.00    -0.084 Cl
ENDBRANCH  13  15
BRANCH   1  23
ATOM     23  C   UNL     1      -1.284  -1.970   2.177  0.00  0.00    +0.187 C 
BRANCH  23  24
ATOM     24  C   UNL     1      -0.392  -3.184   2.167  0.00  0.00    +0.328 C 
ATOM     25  O   UNL     1      -0.877  -4.291   2.209  0.00  0.00    -0.249 OA
BRANCH  24  27
ATOM     26  C   UNL     1       1.726  -4.232   2.107  0.00  0.00    +0.280 C 
ATOM     27  O   UNL     1       0.941  -3.037   2.113  0.00  0.00    -0.467 OA
ENDBRANCH  24  27
ENDBRANCH  23  24
BRANCH  23  28
ATOM     28  C   UNL     1      -0.958  -1.107   3.397  0.00  0.00    +0.069 C 
BRANCH  28  29
ATOM     29  C   UNL     1      -1.762   0.166   3.341  0.00  0.00    -0.045 A 
ATOM     30  C   UNL     1      -1.252   1.279   2.699  0.00  0.00    +0.004 A 
ATOM     31  C   UNL     1      -1.990   2.447   2.648  0.00  0.00    +0.000 A 
ATOM     32  C   UNL     1      -3.239   2.502   3.239  0.00  0.00    +0.000 A 
ATOM     33  C   UNL     1      -3.749   1.389   3.881  0.00  0.00    +0.000 A 
ATOM     34  C   UNL     1      -3.013   0.220   3.928  0.00  0.00    +0.004 A 
ENDBRANCH  28  29
ENDBRANCH  23  28
ENDBRANCH   1  23
TORSDOF 6
