REMARK  Name = ZINC24055540
REMARK  10 active torsions:
REMARK  status: ('A' for Active; 'I' for Inactive)
REMARK    1  A    between atoms: C_1  and  C_2
REMARK    2  A    between atoms: C_3  and  C_28
REMARK    3  A    between atoms: C_7  and  C_8
REMARK    4  A    between atoms: C_13  and  C_16
REMARK    5  A    between atoms: C_17  and  O_26
REMARK    6  A    between atoms: C_19  and  O_24
REMARK    7  A    between atoms: C_21  and  O_22
REMARK    8  A    between atoms: O_22  and  C_23
REMARK    9  A    between atoms: O_24  and  C_25
REMARK   10  A    between atoms: O_26  and  C_27
REMARK                            x       y       z     vdW  Elec       q    Type
REMARK                         _______ _______ _______ _____ _____    ______ ____
ROOT
ATOM      1  C   UNL     1       1.494   1.581   2.453  0.00  0.00    +0.047 C 
ATOM      2  C   UNL     1       0.004   1.805   2.406  0.00  0.00    -0.007 A 
ATOM      3  C   UNL     1      -0.718   1.572   1.248  0.00  0.00    +0.065 A 
ATOM      4  N   UNL     1      -2.020   1.779   1.225  0.00  0.00    -0.152 NA
ATOM      5  N   UNL     1      -2.675   2.186   2.250  0.00  0.00    -0.133 NA
ATOM      6  C   UNL     1      -2.085   2.441   3.410  0.00  0.00    +0.162 A 
ATOM      7  C   UNL     1      -0.694   2.256   3.534  0.00  0.00    +0.098 A 
ATOM      8  N   UNL     1      -2.829   2.885   4.489  0.00  0.00    -0.309 N 
ATOM      9  C   UNL     1      -4.249   3.027   4.128  0.00  0.00    +0.111 C 
ATOM     10  C   UNL     1      -5.063   3.205   5.412  0.00  0.00    +0.054 C 
ATOM     11  C   UNL     1      -4.433   4.268   6.268  0.00  0.00    -0.034 C 
ATOM     12  C   UNL     1      -3.199   4.690   6.085  0.00  0.00    -0.004 C 
ATOM     13  C   UNL     1      -2.305   4.158   5.002  0.00  0.00    +0.134 C 
ATOM     14  C   UNL     1      -0.013   1.086   0.008  0.00  0.00    +0.068 C 
ENDROOT
BRANCH  11  15
ATOM     15  C   UNL     1      -5.229   4.864   7.359  0.00  0.00    +0.061 A 
ATOM     16  C   UNL     1      -5.209   4.292   8.637  0.00  0.00    +0.134 A 
ATOM     17  C   UNL     1      -5.956   4.858   9.656  0.00  0.00    +0.092 A 
ATOM     18  C   UNL     1      -6.730   5.984   9.411  0.00  0.00    +0.127 A 
ATOM     19  C   UNL     1      -6.758   6.552   8.145  0.00  0.00    +0.092 A 
ATOM     20  C   UNL     1      -6.013   5.999   7.118  0.00  0.00    +0.134 A 
BRANCH  20  21
ATOM     21  O   UNL     1      -6.042   6.556   5.880  0.00  0.00    -0.494 OA
ATOM     22  C   UNL     1      -6.864   7.713   5.708  0.00  0.00    +0.277 C 
ENDBRANCH  20  21
BRANCH  18  23
ATOM     23  O   UNL     1      -7.464   6.531  10.415  0.00  0.00    -0.495 OA
ATOM     24  C   UNL     1      -7.390   5.897  11.693  0.00  0.00    +0.277 C 
ENDBRANCH  18  23
BRANCH  16  25
ATOM     25  O   UNL     1      -4.456   3.188   8.877  0.00  0.00    -0.494 OA
ATOM     26  C   UNL     1      -4.484   2.659  10.205  0.00  0.00    +0.277 C 
ENDBRANCH  16  25
ENDBRANCH  11  15
BRANCH   7  27
ATOM     27  C   UNL     1      -0.018   2.521   4.768  0.00  0.00    +0.103 C 
ATOM     28  N   UNL     1       0.518   2.731   5.747  0.00  0.00    -0.191 NA
ENDBRANCH   7  27
TORSDOF 5
