REMARK  Name = ZINC38971602
REMARK  5 active torsions:
REMARK  status: ('A' for Active; 'I' for Inactive)
REMARK    1  A    between atoms: C_1  and  C_2
REMARK    2  A    between atoms: C_7  and  N_8
REMARK    3  A    between atoms: N_8  and  C_9
REMARK    4  A    between atoms: N_12  and  S_13
REMARK    5  A    between atoms: S_13  and  C_16
REMARK                            x       y       z     vdW  Elec       q    Type
REMARK                         _______ _______ _______ _____ _____    ______ ____
ROOT
ATOM      1  C   UNL     1      -0.063  -0.754   3.678  0.00  0.00    +0.235 C 
ATOM      2  C   UNL     1       0.946  -0.158   4.633  0.00  0.00    +0.170 C 
ATOM      3  N   UNL     1       2.208  -0.118   4.320  0.00  0.00    -0.111 NA
ATOM      4  N   UNL     1       0.520   0.330   5.809  0.00  0.00    -0.338 N 
ATOM      5  C   UNL     1      -0.751   0.301   6.149  0.00  0.00    +0.064 A 
ATOM      6  C   UNL     1      -1.165   0.826   7.399  0.00  0.00    +0.028 A 
ATOM      7  C   UNL     1      -2.469   0.799   7.753  0.00  0.00    +0.002 A 
ATOM      8  C   UNL     1      -3.470   0.264   6.926  0.00  0.00    +0.002 A 
ATOM      9  C   UNL     1      -3.184  -0.262   5.715  0.00  0.00    +0.027 A 
ATOM     10  C   UNL     1      -1.788  -0.271   5.255  0.00  0.00    +0.061 A 
ATOM     11  N   UNL     1      -1.475  -0.768   4.091  0.00  0.00    -0.359 N 
ATOM     12  H   UNL     1      -2.158  -1.140   3.511  0.00  0.00    +0.162 HD
ATOM     13  H   UNL     1       1.166   0.712   6.424  0.00  0.00    +0.167 HD
ENDROOT
BRANCH   3  14
ATOM     14  S   UNL     1       3.302   0.537   5.375  0.00  0.00    +0.107 S 
ATOM     15  O   UNL     1       2.999   1.923   5.467  0.00  0.00    -0.146 OA
ATOM     16  O   UNL     1       3.329  -0.314   6.513  0.00  0.00    -0.146 OA
BRANCH  14  17
ATOM     17  C   UNL     1       4.890   0.419   4.620  0.00  0.00    +0.150 A 
ATOM     18  C   UNL     1       5.521   1.309   3.816  0.00  0.00    +0.037 A 
ATOM     19  C   UNL     1       6.779   1.001   3.333  0.00  0.00    +0.010 A 
ATOM     20  C   UNL     1       7.344  -0.182   3.677  0.00  0.00    +0.047 A 
ATOM     21  S   UNL     1       6.087  -0.902   4.720  0.00  0.00    -0.076 S 
ENDBRANCH  14  17
ENDBRANCH   3  14
BRANCH   1  22
ATOM     22  N   UNL     1       0.026  -0.016   2.415  0.00  0.00    -0.318 N 
ATOM     23  H   UNL     1      -0.017   0.954   2.417  0.00  0.00    +0.148 HD
BRANCH  22  30
ATOM     24  C   UNL     1       0.453   1.497   0.044  0.00  0.00    +0.046 C 
ATOM     25  C   UNL     1       0.381  -0.009   0.028  0.00  0.00    -0.029 A 
ATOM     26  C   UNL     1       0.531  -0.695  -1.161  0.00  0.00    +0.020 A 
ATOM     27  C   UNL     1       0.464  -2.077  -1.177  0.00  0.00    +0.018 A 
ATOM     28  C   UNL     1       0.249  -2.775  -0.002  0.00  0.00    +0.017 A 
ATOM     29  C   UNL     1       0.099  -2.094   1.190  0.00  0.00    +0.024 A 
ATOM     30  C   UNL     1       0.171  -0.707   1.210  0.00  0.00    +0.032 A 
ATOM     31 BR   UNL     1       0.668  -3.013  -2.807  0.00  0.00    -0.050 Br
ENDBRANCH  22  30
ENDBRANCH   1  22
TORSDOF 4
