REMARK  Name = ZINC35594174
REMARK  11 active torsions:
REMARK  status: ('A' for Active; 'I' for Inactive)
REMARK    1  A    between atoms: C_1  and  C_2
REMARK    2  A    between atoms: C_2  and  C_3
REMARK    3  A    between atoms: C_2  and  C_4
REMARK    4  A    between atoms: C_2  and  N_5
REMARK    5  A    between atoms: N_5  and  C_6
REMARK    6  A    between atoms: C_6  and  C_7
REMARK    7  A    between atoms: C_7  and  C_8
REMARK    8  A    between atoms: N_10  and  C_11
REMARK    9  A    between atoms: C_11  and  C_12
REMARK   10  A    between atoms: C_18  and  C_20
REMARK   11  A    between atoms: N_25  and  C_26
REMARK                            x       y       z     vdW  Elec       q    Type
REMARK                         _______ _______ _______ _____ _____    ______ ____
ROOT
ATOM      1  N   UNL     1       0.850  -0.608  -0.265  0.00  0.00    -0.291 N 
ATOM      2  C   UNL     1       0.121  -1.050  -1.309  0.00  0.00    +0.266 C 
ATOM      3  O   UNL     1      -1.072  -1.247  -1.178  0.00  0.00    -0.268 OA
ENDROOT
BRANCH   2   4
ATOM      4  C   UNL     1       0.769  -1.294  -2.608  0.00  0.00    +0.135 A 
ATOM      5  C   UNL     1       0.021  -1.635  -3.707  0.00  0.00    +0.081 A 
ATOM      6  S   UNL     1       1.300  -1.799  -4.944  0.00  0.00    -0.060 S 
ATOM      7  C   UNL     1       2.688  -1.402  -3.891  0.00  0.00    +0.163 A 
ATOM      8  N   UNL     1       2.093  -1.181  -2.736  0.00  0.00    -0.220 NA
ATOM      9  N   UNL     1       4.036  -1.338  -4.207  0.00  0.00    -0.293 N 
ATOM     10  H   UNL     1       4.672  -1.011  -3.552  0.00  0.00    +0.154 HD
BRANCH   9  11
ATOM     11  C   UNL     1       4.478  -1.745  -5.469  0.00  0.00    +0.051 A 
ATOM     12  C   UNL     1       3.808  -2.754  -6.150  0.00  0.00    +0.025 A 
ATOM     13  C   UNL     1       4.247  -3.154  -7.396  0.00  0.00    +0.002 A 
ATOM     14  C   UNL     1       5.353  -2.551  -7.968  0.00  0.00    +0.002 A 
ATOM     15  C   UNL     1       6.023  -1.547  -7.295  0.00  0.00    +0.022 A 
ATOM     16  C   UNL     1       5.585  -1.138  -6.049  0.00  0.00    +0.062 A 
ATOM     17 CL   UNL     1       6.422   0.129  -5.207  0.00  0.00    -0.082 Cl
ENDBRANCH   9  11
ENDBRANCH   2   4
BRANCH   1  19
ATOM     18  C   UNL     1       0.215   1.222   1.229  0.00  0.00    +0.031 C 
ATOM     19  C   UNL     1       0.193  -0.292   1.005  0.00  0.00    +0.029 C 
ATOM     20  C   UNL     1       0.933  -0.987   2.149  0.00  0.00    +0.031 C 
ATOM     21  C   UNL     1      -1.257  -0.780   0.965  0.00  0.00    +0.031 C 
ENDBRANCH   1  19
BRANCH   1  22
ATOM     22  C   UNL     1       2.299  -0.443  -0.401  0.00  0.00    +0.118 C 
BRANCH  22  23
ATOM     23  C   UNL     1       2.988  -1.792  -0.188  0.00  0.00    +0.114 C 
BRANCH  23  24
ATOM     24  C   UNL     1       4.479  -1.623  -0.327  0.00  0.00    +0.215 C 
ATOM     25  O   UNL     1       4.945  -0.530  -0.573  0.00  0.00    -0.276 OA
ATOM     26  N   UNL     1       5.295  -2.685  -0.179  0.00  0.00    -0.313 N 
ATOM     27  H   UNL     1       4.923  -3.559   0.018  0.00  0.00    +0.149 HD
BRANCH  26  28
ATOM     28  C   UNL     1       6.744  -2.520  -0.315  0.00  0.00    +0.135 C 
BRANCH  28  29
ATOM     29  C   UNL     1       7.433  -3.869  -0.101  0.00  0.00    +0.135 C 
ATOM     30  C   UNL     1       8.971  -3.711  -0.206  0.00  0.00    +0.035 C 
ATOM     31  C   UNL     1       9.451  -4.922   0.639  0.00  0.00    +0.031 C 
ATOM     32  C   UNL     1       8.362  -5.012   1.730  0.00  0.00    +0.160 C 
ATOM     33  O   UNL     1       7.193  -4.346   1.232  0.00  0.00    -0.375 OA
ENDBRANCH  28  29
ENDBRANCH  26  28
ENDBRANCH  23  24
ENDBRANCH  22  23
ENDBRANCH   1  22
TORSDOF 8
