REMARK  Name = ZINC21487143
REMARK  7 active torsions:
REMARK  status: ('A' for Active; 'I' for Inactive)
REMARK    1  A    between atoms: C_4  and  C_7
REMARK    2  A    between atoms: C_11  and  C_19
REMARK    3  A    between atoms: C_12  and  N_13
REMARK    4  A    between atoms: N_20  and  N_21
REMARK    5  A    between atoms: N_24  and  C_27
REMARK    6  A    between atoms: C_27  and  C_28
REMARK    7  A    between atoms: C_27  and  C_34
REMARK                            x       y       z     vdW  Elec       q    Type
REMARK                         _______ _______ _______ _____ _____    ______ ____
ROOT
ATOM      1  C   UNL     1      -0.958  -2.375  -1.518  0.00  0.00    +0.135 C 
ATOM      2  N   UNL     1      -0.985  -1.081  -1.673  0.00  0.00    -0.192 NA
ENDROOT
BRANCH   1   7
ATOM      3  C   UNL     1      -4.066  -6.171  -1.154  0.00  0.00    +0.013 C 
ATOM      4  C   UNL     1      -3.639  -4.906  -1.354  0.00  0.00    -0.027 C 
ATOM      5  C   UNL     1      -4.508  -3.718  -1.705  0.00  0.00    +0.042 C 
ATOM      6  C   UNL     1      -3.527  -2.538  -1.809  0.00  0.00    +0.043 C 
ATOM      7  C   UNL     1      -2.162  -3.114  -1.524  0.00  0.00    -0.008 C 
ATOM      8  C   UNL     1      -2.261  -4.441  -1.270  0.00  0.00    +0.022 C 
BRANCH   8   9
ATOM      9  N   UNL     1      -1.176  -5.261  -0.965  0.00  0.00    -0.389 NA
ATOM     10  C   UNL     1      -0.334  -4.996   0.212  0.00  0.00    +0.113 C 
ATOM     11  C   UNL     1      -0.207  -6.301   1.014  0.00  0.00    +0.177 C 
ATOM     12  O   UNL     1       0.231  -7.347   0.142  0.00  0.00    -0.377 OA
ATOM     13  C   UNL     1      -0.681  -7.646  -0.917  0.00  0.00    +0.177 C 
ATOM     14  C   UNL     1      -0.835  -6.413  -1.814  0.00  0.00    +0.113 C 
ATOM     15  H   UNL     1      -2.064  -4.647  -1.175  0.00  0.00    +0.127 HD
ENDBRANCH   8   9
BRANCH   3  19
ATOM     16  C   UNL     1      -8.125  -7.179  -1.859  0.00  0.00    +0.000 A 
ATOM     17  C   UNL     1      -7.124  -8.064  -2.219  0.00  0.00    +0.001 A 
ATOM     18  C   UNL     1      -5.802  -7.744  -1.993  0.00  0.00    +0.008 A 
ATOM     19  C   UNL     1      -5.474  -6.521  -1.398  0.00  0.00    -0.025 A 
ATOM     20  C   UNL     1      -6.492  -5.634  -1.033  0.00  0.00    +0.008 A 
ATOM     21  C   UNL     1      -7.809  -5.967  -1.270  0.00  0.00    +0.001 A 
ENDBRANCH   3  19
ENDBRANCH   1   7
BRANCH   2  22
ATOM     22  N   UNL     1       0.199  -0.338  -1.578  0.00  0.00    -0.253 N 
ATOM     23  C   UNL     1       1.499  -1.008  -1.422  0.00  0.00    +0.141 C 
ATOM     24  C   UNL     1       2.458  -0.454  -2.489  0.00  0.00    +0.106 C 
ATOM     25  N   UNL     1       2.498   1.011  -2.390  0.00  0.00    -0.288 NA
ATOM     26  C   UNL     1       1.185   1.601  -2.679  0.00  0.00    +0.106 C 
ATOM     27  C   UNL     1       0.175   1.131  -1.626  0.00  0.00    +0.141 C 
BRANCH  25  28
ATOM     28  C   UNL     1       3.532   1.569  -3.272  0.00  0.00    +0.117 C 
BRANCH  28  29
ATOM     29  C   UNL     1       3.529   3.072  -3.159  0.00  0.00    -0.026 A 
ATOM     30  C   UNL     1       3.462   3.672  -1.916  0.00  0.00    +0.005 A 
ATOM     31  C   UNL     1       3.465   5.051  -1.813  0.00  0.00    +0.000 A 
ATOM     32  C   UNL     1       3.524   5.829  -2.954  0.00  0.00    +0.000 A 
ATOM     33  C   UNL     1       3.586   5.229  -4.197  0.00  0.00    +0.000 A 
ATOM     34  C   UNL     1       3.588   3.850  -4.300  0.00  0.00    +0.005 A 
ENDBRANCH  28  29
BRANCH  28  35
ATOM     35  C   UNL     1       4.882   1.038  -2.863  0.00  0.00    -0.026 A 
ATOM     36  C   UNL     1       5.225   0.977  -1.526  0.00  0.00    +0.005 A 
ATOM     37  C   UNL     1       6.461   0.484  -1.151  0.00  0.00    +0.000 A 
ATOM     38  C   UNL     1       7.358   0.062  -2.114  0.00  0.00    +0.000 A 
ATOM     39  C   UNL     1       7.017   0.128  -3.452  0.00  0.00    +0.000 A 
ATOM     40  C   UNL     1       5.779   0.616  -3.827  0.00  0.00    +0.005 A 
ENDBRANCH  28  35
ENDBRANCH  25  28
ENDBRANCH   2  22
TORSDOF 7
