REMARK  Name = ZINC36813324
REMARK  3 active torsions:
REMARK  status: ('A' for Active; 'I' for Inactive)
REMARK    1  A    between atoms: C_5  and  O_7
REMARK    2  A    between atoms: O_7  and  C_8
REMARK    3  A    between atoms: C_17  and  N_18
REMARK                            x       y       z     vdW  Elec       q    Type
REMARK                         _______ _______ _______ _____ _____    ______ ____
ROOT
ATOM      1  C   UNL     1       0.046  -2.695  -0.013  0.00  0.00    +0.160 A 
ATOM      2  C   UNL     1      -0.582  -3.048   1.200  0.00  0.00    +0.046 A 
ATOM      3  C   UNL     1      -0.002  -2.735   2.439  0.00  0.00    +0.029 A 
ATOM      4  C   UNL     1      -0.639  -3.092   3.590  0.00  0.00    +0.019 A 
ATOM      5  C   UNL     1      -1.859  -3.765   3.552  0.00  0.00    +0.017 A 
ATOM      6  C   UNL     1      -2.448  -4.084   2.367  0.00  0.00    +0.029 A 
ATOM      7  C   UNL     1      -1.822  -3.732   1.159  0.00  0.00    +0.075 A 
ATOM      8  N   UNL     1      -2.381  -4.033  -0.018  0.00  0.00    -0.253 NA
ATOM      9  C   UNL     1      -1.811  -3.712  -1.155  0.00  0.00    +0.137 A 
ATOM     10  C   UNL     1      -0.592  -3.034  -1.198  0.00  0.00    +0.086 A 
ATOM     11 BR   UNL     1       0.143  -2.670   5.260  0.00  0.00    -0.050 Br
ENDROOT
BRANCH  10  12
ATOM     12  N   UNL     1      -0.014  -2.702  -2.431  0.00  0.00    -0.354 N 
ATOM     13  H   UNL     1       0.835  -2.233  -2.458  0.00  0.00    +0.142 HD
ATOM     14  H   UNL     1      -0.462  -2.940  -3.257  0.00  0.00    +0.142 HD
ENDBRANCH  10  12
BRANCH   1  15
ATOM     15  O   UNL     1       1.235  -2.039  -0.021  0.00  0.00    -0.452 OA
BRANCH  15  20
ATOM     16  C   UNL     1      -0.017   1.377   0.010  0.00  0.00    +0.004 A 
ATOM     17  C   UNL     1       1.171   2.086   0.002  0.00  0.00    +0.001 A 
ATOM     18  C   UNL     1       2.379   1.415  -0.013  0.00  0.00    +0.018 A 
ATOM     19  C   UNL     1       2.404   0.034  -0.021  0.00  0.00    +0.056 A 
ATOM     20  C   UNL     1       1.214  -0.680  -0.013  0.00  0.00    +0.142 A 
ATOM     21  C   UNL     1       0.002  -0.004   0.002  0.00  0.00    +0.047 A 
ATOM     22  I   UNL     1       4.236  -0.982  -0.044  0.00  0.00    -0.040 I 
ENDBRANCH  15  20
ENDBRANCH   1  15
TORSDOF 3
