REMARK  Name = ZINC07687507
REMARK  7 active torsions:
REMARK  status: ('A' for Active; 'I' for Inactive)
REMARK    1  A    between atoms: C_1  and  O_2
REMARK    2  A    between atoms: O_2  and  C_3
REMARK    3  A    between atoms: C_6  and  N_9
REMARK    4  A    between atoms: N_9  and  C_10
REMARK    5  A    between atoms: N_9  and  S_16
REMARK    6  A    between atoms: C_10  and  C_11
REMARK    7  A    between atoms: S_16  and  C_19
REMARK                            x       y       z     vdW  Elec       q    Type
REMARK                         _______ _______ _______ _____ _____    ______ ____
ROOT
ATOM      1  N   UNL     1       4.295   2.583  -1.606  0.00  0.00    -0.198 N 
ENDROOT
BRANCH   1   5
ATOM      2  C   UNL     1       6.918  -0.014  -3.543  0.00  0.00    +0.120 A 
ATOM      3  C   UNL     1       7.256   0.519  -2.308  0.00  0.00    +0.047 A 
ATOM      4  C   UNL     1       6.388   1.379  -1.665  0.00  0.00    +0.028 A 
ATOM      5  C   UNL     1       5.176   1.712  -2.256  0.00  0.00    +0.052 A 
ATOM      6  C   UNL     1       4.836   1.174  -3.490  0.00  0.00    +0.028 A 
ATOM      7  C   UNL     1       5.708   0.318  -4.134  0.00  0.00    +0.047 A 
BRANCH   2   9
ATOM      8  C   UNL     1       7.361  -1.372  -5.444  0.00  0.00    +0.277 C 
ATOM      9  O   UNL     1       7.773  -0.861  -4.175  0.00  0.00    -0.495 OA
ENDBRANCH   2   9
ENDBRANCH   1   5
BRANCH   1  10
ATOM     10  S   UNL     1       3.719   2.207  -0.099  0.00  0.00    +0.075 S 
ATOM     11  O   UNL     1       3.480   3.441   0.564  0.00  0.00    -0.150 OA
ATOM     12  O   UNL     1       4.586   1.213   0.430  0.00  0.00    -0.150 OA
BRANCH  10  13
ATOM     13  C   UNL     1       2.148   1.441  -0.319  0.00  0.00    +0.111 A 
ATOM     14  C   UNL     1       1.001   2.215  -0.341  0.00  0.00    +0.031 A 
ATOM     15  C   UNL     1      -0.235   1.623  -0.512  0.00  0.00    +0.030 A 
ATOM     16  C   UNL     1      -0.328   0.248  -0.663  0.00  0.00    +0.067 A 
ATOM     17  C   UNL     1       0.830  -0.533  -0.642  0.00  0.00    +0.069 A 
ATOM     18  C   UNL     1       2.067   0.070  -0.469  0.00  0.00    +0.056 A 
ATOM     19  N   UNL     1       0.427  -1.855  -0.815  0.00  0.00    -0.306 N 
ATOM     20  H   UNL     1       1.012  -2.628  -0.843  0.00  0.00    +0.170 HD
ATOM     21  C   UNL     1      -0.914  -1.877  -0.936  0.00  0.00    +0.325 A 
ATOM     22  O   UNL     1      -1.586  -2.878  -1.101  0.00  0.00    -0.247 OA
ATOM     23  N   UNL     1      -1.398  -0.624  -0.849  0.00  0.00    -0.306 N 
ATOM     24  H   UNL     1      -2.333  -0.371  -0.906  0.00  0.00    +0.170 HD
ENDBRANCH  10  13
ENDBRANCH   1  10
BRANCH   1  25
ATOM     25  C   UNL     1       3.883   3.829  -2.257  0.00  0.00    +0.173 C 
BRANCH  25  26
ATOM     26  C   UNL     1       4.911   4.899  -1.991  0.00  0.00    +0.009 A 
ATOM     27  C   UNL     1       6.013   5.222  -2.711  0.00  0.00    +0.013 A 
ATOM     28  C   UNL     1       6.822   6.253  -2.272  0.00  0.00    +0.008 A 
ATOM     29  C   UNL     1       6.488   6.912  -1.135  0.00  0.00    +0.045 A 
ATOM     30  S   UNL     1       4.987   6.075  -0.650  0.00  0.00    -0.100 S 
ENDBRANCH  25  26
ENDBRANCH   1  25
TORSDOF 6
