REMARK  Name = ZINC20551265
REMARK  11 active torsions:
REMARK  status: ('A' for Active; 'I' for Inactive)
REMARK    1  A    between atoms: C_1  and  C_2
REMARK    2  A    between atoms: C_2  and  C_4
REMARK    3  A    between atoms: C_2  and  N_10
REMARK    4  A    between atoms: C_11  and  C_13
REMARK    5  A    between atoms: C_13  and  C_36
REMARK    6  A    between atoms: C_14  and  C_15
REMARK    7  A    between atoms: C_18  and  O_34
REMARK    8  A    between atoms: C_19  and  C_21
REMARK    9  A    between atoms: C_21  and  O_22
REMARK   10  A    between atoms: O_22  and  C_23
REMARK   11  A    between atoms: O_34  and  C_35
REMARK                            x       y       z     vdW  Elec       q    Type
REMARK                         _______ _______ _______ _____ _____    ______ ____
ROOT
ATOM      1  C   UNL     1      -1.228   1.748  -0.019  0.00  0.00    -0.023 A 
ATOM      2  C   UNL     1      -0.019   1.052  -0.162  0.00  0.00    +0.011 A 
ATOM      3  C   UNL     1       1.161   1.739  -0.203  0.00  0.00    +0.046 A 
ATOM      4  C   UNL     1       1.165   3.127  -0.097  0.00  0.00    +0.127 A 
ATOM      5  C   UNL     1      -0.031   3.822   0.051  0.00  0.00    +0.032 A 
ATOM      6  C   UNL     1      -1.217   3.145   0.094  0.00  0.00    +0.018 A 
ENDROOT
BRANCH   1   8
ATOM      7  C   UNL     1      -2.537  -0.267   0.516  0.00  0.00    +0.114 C 
ATOM      8  C   UNL     1      -2.497   1.017   0.019  0.00  0.00    +0.032 C 
BRANCH   7  10
ATOM      9  N   UNL     1      -3.816  -2.312   0.904  0.00  0.00    -0.304 N 
ATOM     10  C   UNL     1      -3.776  -1.055   0.417  0.00  0.00    +0.255 C 
ATOM     11  O   UNL     1      -4.764  -0.573  -0.103  0.00  0.00    -0.269 OA
ATOM     12  H   UNL     1      -2.922  -2.748   1.374  0.00  0.00    +0.150 HD
BRANCH   9  14
ATOM     13  C   UNL     1      -5.960  -2.766   1.990  0.00  0.00    +0.033 C 
ATOM     14  C   UNL     1      -5.049  -3.096   0.805  0.00  0.00    +0.100 C 
BRANCH  14  15
ATOM     15  C   UNL     1      -4.713  -4.565   0.825  0.00  0.00    -0.027 A 
ATOM     16  C   UNL     1      -3.723  -5.036   1.666  0.00  0.00    +0.005 A 
ATOM     17  C   UNL     1      -3.417  -6.384   1.687  0.00  0.00    +0.000 A 
ATOM     18  C   UNL     1      -4.096  -7.260   0.860  0.00  0.00    +0.000 A 
ATOM     19  C   UNL     1      -5.082  -6.788   0.015  0.00  0.00    +0.000 A 
ATOM     20  C   UNL     1      -5.391  -5.440  -0.003  0.00  0.00    +0.005 A 
ENDBRANCH  14  15
ENDBRANCH   9  14
ENDBRANCH   7  10
BRANCH   7  21
ATOM     21  C   UNL     1      -1.374  -0.835   1.128  0.00  0.00    +0.104 C 
ATOM     22  N   UNL     1      -0.452  -1.286   1.614  0.00  0.00    -0.191 NA
ENDBRANCH   7  21
ENDBRANCH   1   8
BRANCH   4  23
ATOM     23  O   UNL     1       2.340   3.804  -0.138  0.00  0.00    -0.495 OA
ATOM     24  C   UNL     1       3.530   3.029  -0.292  0.00  0.00    +0.277 C 
ENDBRANCH   4  23
BRANCH   5  25
ATOM     25  C   UNL     1      -0.018   5.324   0.165  0.00  0.00    +0.268 C 
BRANCH  25  26
ATOM     26  O   UNL     1      -1.357   5.803   0.308  0.00  0.00    -0.481 OA
BRANCH  26  27
ATOM     27  C   UNL     1      -1.522   7.149   0.424  0.00  0.00    +0.197 A 
ATOM     28  C   UNL     1      -1.518   7.743   1.678  0.00  0.00    +0.206 A 
ATOM     29  C   UNL     1      -1.681   9.114   1.795  0.00  0.00    +0.200 A 
ATOM     30  C   UNL     1      -1.860   9.890   0.661  0.00  0.00    +0.199 A 
ATOM     31  C   UNL     1      -1.871   9.297  -0.592  0.00  0.00    +0.200 A 
ATOM     32  C   UNL     1      -1.702   7.927  -0.711  0.00  0.00    +0.206 A 
ATOM     33  F   UNL     1      -1.712   7.349  -1.932  0.00  0.00    -0.198 F 
ATOM     34  F   UNL     1      -2.045  10.054  -1.696  0.00  0.00    -0.199 F 
ATOM     35  F   UNL     1      -2.024  11.226   0.776  0.00  0.00    -0.199 F 
ATOM     36  F   UNL     1      -1.670   9.694   3.015  0.00  0.00    -0.199 F 
ATOM     37  F   UNL     1      -1.350   6.986   2.784  0.00  0.00    -0.198 F 
ENDBRANCH  26  27
ENDBRANCH  25  26
ENDBRANCH   5  25
TORSDOF 9
