REMARK  Name = ZINC20757166
REMARK  6 active torsions:
REMARK  status: ('A' for Active; 'I' for Inactive)
REMARK    1  A    between atoms: C_3  and  N_34
REMARK    2  A    between atoms: C_6  and  C_7
REMARK    3  A    between atoms: C_18  and  S_23
REMARK    4  A    between atoms: S_23  and  N_26
REMARK    5  A    between atoms: N_26  and  C_27
REMARK    6  A    between atoms: C_27  and  C_28
REMARK                            x       y       z     vdW  Elec       q    Type
REMARK                         _______ _______ _______ _____ _____    ______ ____
ROOT
ATOM      1  C   UNL     1       1.151   3.592   0.010  0.00  0.00    +0.105 C 
ATOM      2  C   UNL     1       1.449   4.113   1.405  0.00  0.00    +0.029 C 
ATOM      3  C   UNL     1       0.390   3.866   2.487  0.00  0.00    +0.033 C 
ATOM      4  C   UNL     1       0.612   5.063   3.414  0.00  0.00    -0.030 C 
ATOM      5  C   UNL     1       1.143   6.071   2.733  0.00  0.00    -0.023 C 
ATOM      6  C   UNL     1       1.290   5.661   1.313  0.00  0.00    +0.049 C 
ATOM      7  C   UNL     1       2.381   6.178   0.459  0.00  0.00    -0.018 A 
ATOM      8  C   UNL     1       2.985   7.395   0.688  0.00  0.00    +0.034 A 
ATOM      9  C   UNL     1       3.993   7.842  -0.147  0.00  0.00    +0.106 A 
ATOM     10  C   UNL     1       4.397   7.066  -1.218  0.00  0.00    +0.030 A 
ATOM     11  C   UNL     1       3.802   5.843  -1.452  0.00  0.00    +0.025 A 
ATOM     12  C   UNL     1       2.793   5.382  -0.615  0.00  0.00    +0.031 A 
ATOM     13  N   UNL     1       2.227   4.123  -0.855  0.00  0.00    -0.336 N 
ATOM     14  H   UNL     1       2.595   3.527  -1.703  0.00  0.00    +0.147 HD
ENDROOT
BRANCH   1  20
ATOM     15  C   UNL     1      -0.017   1.378   0.010  0.00  0.00    +0.008 A 
ATOM     16  C   UNL     1       0.002  -0.004   0.002  0.00  0.00    +0.033 A 
ATOM     17  C   UNL     1       1.208  -0.679  -0.013  0.00  0.00    +0.126 A 
ATOM     18  C   UNL     1       2.396   0.029  -0.021  0.00  0.00    +0.033 A 
ATOM     19  C   UNL     1       2.377   1.411  -0.015  0.00  0.00    +0.008 A 
ATOM     20  C   UNL     1       1.171   2.086   0.002  0.00  0.00    -0.027 A 
BRANCH  17  21
ATOM     21  N   UNL     1       1.228  -2.159  -0.020  0.00  0.00    +0.056 N 
ATOM     22  O   UNL     1       0.182  -2.782  -0.013  0.00  0.00    -0.126 OA
ATOM     23  O   UNL     1       2.291  -2.753  -0.034  0.00  0.00    -0.126 OA
ENDBRANCH  17  21
ENDBRANCH   1  20
BRANCH   9  24
ATOM     24  S   UNL     1       4.762   9.398   0.153  0.00  0.00    +0.058 S 
ATOM     25  O   UNL     1       4.580   9.682   1.534  0.00  0.00    -0.153 OA
ATOM     26  O   UNL     1       6.048   9.339  -0.449  0.00  0.00    -0.153 OA
BRANCH  24  27
ATOM     27  N   UNL     1       3.901  10.539  -0.682  0.00  0.00    -0.187 NA
ATOM     28  H   UNL     1       4.322  10.960  -1.607  0.00  0.00    +0.148 HD
BRANCH  27  29
ATOM     29  C   UNL     1       2.510  10.821  -0.316  0.00  0.00    +0.137 C 
BRANCH  29  30
ATOM     30  C   UNL     1       2.069  12.136  -0.962  0.00  0.00    +0.134 C 
ATOM     31  C   UNL     1       0.611  12.470  -0.559  0.00  0.00    +0.035 C 
ATOM     32  C   UNL     1       0.605  14.014  -0.733  0.00  0.00    +0.031 C 
ATOM     33  C   UNL     1       2.044  14.397  -0.325  0.00  0.00    +0.160 C 
ATOM     34  O   UNL     1       2.858  13.227  -0.463  0.00  0.00    -0.375 OA
ENDBRANCH  29  30
ENDBRANCH  27  29
ENDBRANCH  24  27
ENDBRANCH   9  24
TORSDOF 6
