REMARK  Name = ZINC03004174
REMARK  6 active torsions:
REMARK  status: ('A' for Active; 'I' for Inactive)
REMARK    1  A    between atoms: C_1  and  C_2
REMARK    2  A    between atoms: C_2  and  N_3
REMARK    3  A    between atoms: C_7  and  C_8
REMARK    4  A    between atoms: C_11  and  O_15
REMARK    5  A    between atoms: O_15  and  C_16
REMARK    6  A    between atoms: C_16  and  C_17
REMARK                            x       y       z     vdW  Elec       q    Type
REMARK                         _______ _______ _______ _____ _____    ______ ____
ROOT
ATOM      1  C   UNL     1       0.992   0.431   4.795  0.00  0.00    -0.021 A 
ATOM      2  C   UNL     1       1.178   1.736   4.321  0.00  0.00    +0.031 A 
ATOM      3  C   UNL     1       0.686   2.094   3.084  0.00  0.00    +0.085 A 
ATOM      4  C   UNL     1       0.007   1.162   2.307  0.00  0.00    +0.158 A 
ATOM      5  C   UNL     1      -0.185  -0.134   2.775  0.00  0.00    +0.085 A 
ATOM      6  C   UNL     1       0.307  -0.503   4.008  0.00  0.00    +0.031 A 
ATOM      7 CL   UNL     1      -1.041  -1.289   1.802  0.00  0.00    -0.080 Cl
ATOM      8 CL   UNL     1       0.916   3.710   2.495  0.00  0.00    -0.080 Cl
ENDROOT
BRANCH   1  13
ATOM      9  N   UNL     1       3.124   1.935   8.833  0.00  0.00    -0.256 N 
ATOM     10  C   UNL     1       2.728   0.826   8.231  0.00  0.00    +0.258 C 
ATOM     11  O   UNL     1       2.938  -0.272   8.712  0.00  0.00    -0.269 OA
ATOM     12  C   UNL     1       2.024   0.988   6.943  0.00  0.00    +0.077 C 
ATOM     13  C   UNL     1       1.514   0.044   6.111  0.00  0.00    +0.028 C 
ATOM     14  S   UNL     1       2.019   2.769   6.786  0.00  0.00    -0.061 S 
ATOM     15  C   UNL     1       2.884   3.150   8.301  0.00  0.00    +0.121 C 
ATOM     16  S   UNL     1       3.305   4.687   8.926  0.00  0.00    -0.027 S 
BRANCH   9  18
ATOM     17  C   UNL     1       2.825   1.867  11.259  0.00  0.00    +0.025 C 
ATOM     18  C   UNL     1       3.835   1.841  10.111  0.00  0.00    +0.111 C 
ENDBRANCH   9  18
ENDBRANCH   1  13
BRANCH   4  19
ATOM     19  O   UNL     1      -0.476   1.520   1.089  0.00  0.00    -0.477 OA
BRANCH  19  20
ATOM     20  C   UNL     1       0.393   1.338  -0.032  0.00  0.00    +0.317 C 
BRANCH  20  21
ATOM     21  C   UNL     1      -0.292   1.776  -1.259  0.00  0.00    -0.065 C 
ATOM     22  C   UNL     1      -0.838   2.125  -2.237  0.00  0.00    +0.007 C 
ENDBRANCH  20  21
ENDBRANCH  19  20
ENDBRANCH   4  19
TORSDOF 5
