REMARK  Name = ZINC08403409
REMARK  5 active torsions:
REMARK  status: ('A' for Active; 'I' for Inactive)
REMARK    1  A    between atoms: C_1  and  O_2
REMARK    2  A    between atoms: O_2  and  C_3
REMARK    3  A    between atoms: C_6  and  N_9
REMARK    4  A    between atoms: C_10  and  C_11
REMARK    5  A    between atoms: N_31  and  C_34
REMARK                            x       y       z     vdW  Elec       q    Type
REMARK                         _______ _______ _______ _____ _____    ______ ____
ROOT
ATOM      1  C   UNL     1       2.881  -4.642  -3.331  0.00  0.00    +0.068 C 
ATOM      2  C   UNL     1       4.231  -3.984  -3.568  0.00  0.00    -0.027 A 
ATOM      3  C   UNL     1       4.763  -3.713  -4.796  0.00  0.00    +0.005 A 
ATOM      4  C   UNL     1       6.010  -3.106  -4.867  0.00  0.00    +0.000 A 
ATOM      5  C   UNL     1       6.699  -2.785  -3.712  0.00  0.00    +0.000 A 
ATOM      6  C   UNL     1       6.154  -3.065  -2.466  0.00  0.00    +0.004 A 
ATOM      7  C   UNL     1       4.927  -3.661  -2.404  0.00  0.00    -0.035 A 
ATOM      8  C   UNL     1       4.204  -4.029  -1.118  0.00  0.00    +0.062 C 
ATOM      9  C   UNL     1       2.833  -3.382  -1.230  0.00  0.00    -0.035 A 
ATOM     10  C   UNL     1       2.137  -3.704  -2.394  0.00  0.00    -0.027 A 
ATOM     11  C   UNL     1       0.891  -3.195  -2.626  0.00  0.00    +0.005 A 
ATOM     12  C   UNL     1       0.327  -2.348  -1.681  0.00  0.00    +0.000 A 
ATOM     13  C   UNL     1       1.018  -2.027  -0.527  0.00  0.00    +0.000 A 
ATOM     14  C   UNL     1       2.284  -2.549  -0.297  0.00  0.00    +0.004 A 
ATOM     15  C   UNL     1       3.949  -5.549  -1.210  0.00  0.00    +0.101 C 
ATOM     16  C   UNL     1       3.158  -5.915  -2.502  0.00  0.00    +0.109 C 
ATOM     17  C   UNL     1       4.128  -6.790  -3.266  0.00  0.00    +0.232 C 
ATOM     18  O   UNL     1       3.922  -7.281  -4.355  0.00  0.00    -0.274 OA
ATOM     19  N   UNL     1       5.248  -6.935  -2.548  0.00  0.00    -0.210 N 
ATOM     20  C   UNL     1       5.276  -6.255  -1.383  0.00  0.00    +0.231 C 
ATOM     21  O   UNL     1       6.192  -6.234  -0.589  0.00  0.00    -0.274 OA
ENDROOT
BRANCH  19  22
ATOM     22  C   UNL     1       6.340  -7.694  -2.991  0.00  0.00    +0.044 A 
ATOM     23  C   UNL     1       6.410  -9.049  -2.697  0.00  0.00    +0.024 A 
ATOM     24  C   UNL     1       7.487  -9.795  -3.134  0.00  0.00    +0.002 A 
ATOM     25  C   UNL     1       8.495  -9.194  -3.864  0.00  0.00    +0.000 A 
ATOM     26  C   UNL     1       8.429  -7.844  -4.159  0.00  0.00    +0.002 A 
ATOM     27  C   UNL     1       7.351  -7.094  -3.729  0.00  0.00    +0.024 A 
ENDBRANCH  19  22
BRANCH   1  29
ATOM     28  N   UNL     1       1.851  -3.954  -5.417  0.00  0.00    -0.259 NA
ATOM     29  C   UNL     1       2.129  -4.920  -4.607  0.00  0.00    +0.101 C 
BRANCH  28  33
ATOM     30  C   UNL     1       4.531  -0.834  -5.917  0.00  0.00    +0.120 A 
ATOM     31  C   UNL     1       4.314  -1.733  -6.952  0.00  0.00    +0.048 A 
ATOM     32  C   UNL     1       3.423  -2.772  -6.790  0.00  0.00    +0.031 A 
ATOM     33  C   UNL     1       2.739  -2.921  -5.582  0.00  0.00    +0.064 A 
ATOM     34  C   UNL     1       2.961  -2.015  -4.543  0.00  0.00    +0.031 A 
ATOM     35  C   UNL     1       3.857  -0.981  -4.712  0.00  0.00    +0.048 A 
BRANCH  30  37
ATOM     36  C   UNL     1       6.068   0.283  -7.345  0.00  0.00    +0.277 C 
ATOM     37  O   UNL     1       5.409   0.190  -6.081  0.00  0.00    -0.495 OA
ENDBRANCH  30  37
ENDBRANCH  28  33
ENDBRANCH   1  29
TORSDOF 4
