REMARK  Name = ZINC36040744
REMARK  14 active torsions:
REMARK  status: ('A' for Active; 'I' for Inactive)
REMARK    1  A    between atoms: C_1  and  C_2
REMARK    2  A    between atoms: C_2  and  N_3
REMARK    3  A    between atoms: N_3  and  C_4
REMARK    4  A    between atoms: C_4  and  N_6
REMARK    5  A    between atoms: N_6  and  C_7
REMARK    6  A    between atoms: N_6  and  C_31
REMARK    7  A    between atoms: C_7  and  C_8
REMARK    8  A    between atoms: C_11  and  S_20
REMARK    9  A    between atoms: N_12  and  C_13
REMARK   10  A    between atoms: C_13  and  C_14
REMARK   11  A    between atoms: S_20  and  C_23
REMARK   12  A    between atoms: C_23  and  C_24
REMARK   13  A    between atoms: C_29  and  C_30
REMARK   14  A    between atoms: C_31  and  C_32
REMARK                            x       y       z     vdW  Elec       q    Type
REMARK                         _______ _______ _______ _____ _____    ______ ____
ROOT
ATOM      1  C   UNL     1       0.687  -3.655  -3.256  0.00  0.00    +0.057 A 
ATOM      2  C   UNL     1       0.914  -4.076  -4.514  0.00  0.00    +0.137 A 
ATOM      3  N   UNL     1      -0.139  -4.812  -4.902  0.00  0.00    -0.220 NA
ATOM      4  C   UNL     1      -1.010  -4.862  -3.931  0.00  0.00    +0.252 A 
ATOM      5  N   UNL     1      -0.530  -4.158  -2.883  0.00  0.00    -0.307 N 
ENDROOT
BRANCH   4   6
ATOM      6  S   UNL     1      -2.552  -5.712  -3.978  0.00  0.00    +0.034 S 
ATOM      7  O   UNL     1      -3.340  -5.090  -2.972  0.00  0.00    -0.166 OA
ATOM      8  O   UNL     1      -2.950  -5.667  -5.341  0.00  0.00    -0.166 OA
BRANCH   6   9
ATOM      9  C   UNL     1      -2.159  -7.417  -3.499  0.00  0.00    +0.210 C 
BRANCH   9  10
ATOM     10  C   UNL     1      -3.399  -8.267  -3.602  0.00  0.00    -0.023 A 
ATOM     11  C   UNL     1      -4.242  -8.394  -2.513  0.00  0.00    +0.005 A 
ATOM     12  C   UNL     1      -5.380  -9.174  -2.607  0.00  0.00    +0.000 A 
ATOM     13  C   UNL     1      -5.675  -9.825  -3.791  0.00  0.00    +0.000 A 
ATOM     14  C   UNL     1      -4.833  -9.697  -4.879  0.00  0.00    +0.003 A 
ATOM     15  C   UNL     1      -3.697  -8.914  -4.786  0.00  0.00    -0.046 A 
ATOM     16  C   UNL     1      -2.782  -8.769  -5.974  0.00  0.00    +0.044 C 
ENDBRANCH   9  10
ENDBRANCH   6   9
ENDBRANCH   4   6
BRANCH   1  17
ATOM     17  C   UNL     1       1.601  -2.800  -2.416  0.00  0.00    +0.161 C 
BRANCH  17  18
ATOM     18  N   UNL     1       2.459  -1.998  -3.291  0.00  0.00    -0.304 N 
BRANCH  18  19
ATOM     19  C   UNL     1       2.012  -0.826  -3.784  0.00  0.00    +0.133 C 
ATOM     20  S   UNL     1       0.493  -0.212  -3.288  0.00  0.00    -0.019 S 
BRANCH  19  21
ATOM     21  N   UNL     1       2.761  -0.137  -4.668  0.00  0.00    -0.327 N 
ATOM     22  H   UNL     1       3.590  -0.516  -5.001  0.00  0.00    +0.148 HD
BRANCH  21  24
ATOM     23  C   UNL     1       3.403   1.797  -6.021  0.00  0.00    +0.024 C 
ATOM     24  C   UNL     1       2.323   1.184  -5.127  0.00  0.00    +0.100 C 
ENDBRANCH  21  24
ENDBRANCH  19  21
ENDBRANCH  18  19
BRANCH  18  25
ATOM     25  C   UNL     1       3.804  -2.469  -3.630  0.00  0.00    +0.138 C 
BRANCH  25  26
ATOM     26  C   UNL     1       4.804  -1.946  -2.596  0.00  0.00    +0.136 C 
ATOM     27  C   UNL     1       6.239  -2.405  -2.956  0.00  0.00    +0.035 C 
ATOM     28  C   UNL     1       7.084  -1.308  -2.253  0.00  0.00    +0.031 C 
ATOM     29  C   UNL     1       6.190  -0.059  -2.404  0.00  0.00    +0.160 C 
ATOM     30  O   UNL     1       4.848  -0.511  -2.628  0.00  0.00    -0.375 OA
ENDBRANCH  25  26
ENDBRANCH  18  25
ENDBRANCH  17  18
ENDBRANCH   1  17
BRANCH   5  31
ATOM     31  C   UNL     1      -1.192  -3.965  -1.590  0.00  0.00    +0.160 C 
BRANCH  31  32
ATOM     32  C   UNL     1      -0.762  -5.053  -0.639  0.00  0.00    -0.028 A 
ATOM     33  C   UNL     1      -1.526  -6.197  -0.506  0.00  0.00    +0.005 A 
ATOM     34  C   UNL     1      -1.132  -7.194   0.366  0.00  0.00    +0.000 A 
ATOM     35  C   UNL     1       0.027  -7.047   1.105  0.00  0.00    +0.000 A 
ATOM     36  C   UNL     1       0.792  -5.904   0.971  0.00  0.00    +0.000 A 
ATOM     37  C   UNL     1       0.400  -4.908   0.096  0.00  0.00    +0.005 A 
ENDBRANCH  31  32
ENDBRANCH   5  31
TORSDOF 12
