REMARK  Name = ZINC11815047
REMARK  8 active torsions:
REMARK  status: ('A' for Active; 'I' for Inactive)
REMARK    1  A    between atoms: C_6  and  C_7
REMARK    2  A    between atoms: C_7  and  C_8
REMARK    3  A    between atoms: C_8  and  C_14
REMARK    4  A    between atoms: C_14  and  C_15
REMARK    5  A    between atoms: C_15  and  C_16
REMARK    6  A    between atoms: N_18  and  C_19
REMARK    7  A    between atoms: C_19  and  C_20
REMARK    8  A    between atoms: C_20  and  N_65
REMARK                            x       y       z     vdW  Elec       q    Type
REMARK                         _______ _______ _______ _____ _____    ______ ____
ROOT
ATOM      1  C   UNL     1       1.166   3.772   4.849  0.00  0.00    +0.098 C 
ENDROOT
BRANCH   1   2
ATOM      2  C   UNL     1       0.550   4.121   3.519  0.00  0.00    +0.213 C 
ATOM      3  O   UNL     1      -0.590   4.533   3.468  0.00  0.00    -0.276 OA
ATOM      4  N   UNL     1       1.264   3.974   2.385  0.00  0.00    -0.317 N 
ATOM      5  H   UNL     1       2.176   3.644   2.426  0.00  0.00    +0.149 HD
BRANCH   4   6
ATOM      6  C   UNL     1       0.665   4.313   1.092  0.00  0.00    +0.092 C 
BRANCH   6   7
ATOM      7  C   UNL     1       1.640   3.953  -0.031  0.00  0.00    -0.049 C 
ATOM      8  C   UNL     1       1.002   4.258  -1.403  0.00  0.00    -0.010 C 
ATOM      9  C   UNL     1       1.532   5.668  -1.762  0.00  0.00    -0.001 C 
ATOM     10  C   UNL     1       2.991   5.628  -1.245  0.00  0.00    -0.001 C 
ATOM     11  C   UNL     1       2.904   4.824   0.069  0.00  0.00    -0.010 C 
BRANCH   7  17
ATOM     12  C   UNL     1       3.002   2.182  -0.966  0.00  0.00    -0.049 C 
ATOM     13  C   UNL     1       3.391   0.710  -0.806  0.00  0.00    +0.141 C 
ATOM     14  O   UNL     1       2.217  -0.102  -0.901  0.00  0.00    -0.383 OA
ATOM     15  C   UNL     1       1.221   0.212   0.076  0.00  0.00    +0.141 C 
ATOM     16  C   UNL     1       0.809   1.678  -0.075  0.00  0.00    -0.049 C 
ATOM     17  N   UNL     1       2.011   2.526   0.076  0.00  0.00    +0.387 N 
ATOM     18  H   UNL     1       2.425   2.357   1.000  0.00  0.00    -0.081 HD
ENDBRANCH   7  17
ENDBRANCH   6   7
ENDBRANCH   4   6
ENDBRANCH   1   2
BRANCH   1  19
ATOM     19  C   UNL     1       0.150   4.028   5.964  0.00  0.00    +0.035 C 
BRANCH  19  20
ATOM     20  C   UNL     1       0.783   3.693   7.316  0.00  0.00    +0.039 C 
ATOM     21  C   UNL     1       1.196   2.205   7.359  0.00  0.00    +0.035 C 
ATOM     22  C   UNL     1       2.494   2.261   8.196  0.00  0.00    +0.098 C 
ATOM     23  C   UNL     1       3.004   3.672   7.995  0.00  0.00    +0.214 C 
ATOM     24  O   UNL     1       4.130   4.046   8.247  0.00  0.00    -0.276 OA
ATOM     25  N   UNL     1       2.027   4.449   7.497  0.00  0.00    -0.309 N 
ATOM     26  H   UNL     1       2.132   5.390   7.284  0.00  0.00    +0.149 HD
BRANCH  20  27
ATOM     27  C   UNL     1      -0.196   4.005   8.450  0.00  0.00    +0.061 C 
BRANCH  27  33
ATOM     28  C   UNL     1       0.268   6.386   9.065  0.00  0.00    +0.005 A 
ATOM     29  C   UNL     1      -0.049   7.732   9.036  0.00  0.00    +0.020 A 
ATOM     30  C   UNL     1      -1.186   8.160   8.374  0.00  0.00    +0.041 A 
ATOM     31  C   UNL     1      -2.002   7.243   7.736  0.00  0.00    +0.020 A 
ATOM     32  C   UNL     1      -1.681   5.899   7.761  0.00  0.00    +0.005 A 
ATOM     33  C   UNL     1      -0.545   5.471   8.423  0.00  0.00    -0.045 A 
ATOM     34 CL   UNL     1      -1.589   9.849   8.344  0.00  0.00    -0.084 Cl
ENDBRANCH  27  33
ENDBRANCH  20  27
ENDBRANCH  19  20
ENDBRANCH   1  19
TORSDOF 8
