REMARK  Name = ZINC01876600
REMARK  13 active torsions:
REMARK  status: ('A' for Active; 'I' for Inactive)
REMARK    1  A    between atoms: C_1  and  C_2
REMARK    2  A    between atoms: C_5  and  N_8
REMARK    3  A    between atoms: C_17  and  S_18
REMARK    4  A    between atoms: S_18  and  C_19
REMARK    5  A    between atoms: C_19  and  C_20
REMARK    6  A    between atoms: N_22  and  N_23
REMARK    7  A    between atoms: C_24  and  C_25
REMARK    8  A    between atoms: C_27  and  O_35
REMARK    9  A    between atoms: C_28  and  O_33
REMARK   10  A    between atoms: C_30  and  O_31
REMARK   11  A    between atoms: O_31  and  C_32
REMARK   12  A    between atoms: O_33  and  C_34
REMARK   13  A    between atoms: O_35  and  C_36
REMARK                            x       y       z     vdW  Elec       q    Type
REMARK                         _______ _______ _______ _____ _____    ______ ____
ROOT
ATOM      1  N   UNL     1       0.059  -4.171  -0.021  0.00  0.00    -0.255 N 
ATOM      2  C   UNL     1       0.170  -4.837   1.144  0.00  0.00    +0.268 A 
ATOM      3  O   UNL     1       0.254  -4.229   2.197  0.00  0.00    -0.267 OA
ATOM      4  C   UNL     1       0.189  -6.267   1.129  0.00  0.00    +0.076 A 
ATOM      5  C   UNL     1       0.302  -7.185   2.264  0.00  0.00    -0.023 A 
ATOM      6  C   UNL     1       0.296  -8.505   1.987  0.00  0.00    -0.004 A 
ATOM      7  S   UNL     1       0.140  -8.605   0.224  0.00  0.00    -0.073 S 
ATOM      8  C   UNL     1       0.085  -6.868  -0.138  0.00  0.00    +0.117 A 
ATOM      9  N   UNL     1      -0.022  -6.154  -1.252  0.00  0.00    -0.215 NA
ATOM     10  C   UNL     1      -0.043  -4.837  -1.211  0.00  0.00    +0.178 A 
ATOM     11  C   UNL     1       0.399  -9.637   2.962  0.00  0.00    +0.043 C 
ATOM     12  C   UNL     1       0.889  -9.077   4.305  0.00  0.00    +0.005 C 
ATOM     13  C   UNL     1       0.062  -7.835   4.650  0.00  0.00    +0.005 C 
ATOM     14  C   UNL     1       0.424  -6.691   3.703  0.00  0.00    +0.037 C 
ENDROOT
BRANCH   1  19
ATOM     15  C   UNL     1      -0.017   1.503   0.008  0.00  0.00    +0.044 C 
ATOM     16  C   UNL     1       0.003  -0.004   0.001  0.00  0.00    -0.050 A 
ATOM     17  C   UNL     1       1.206  -0.678  -0.111  0.00  0.00    +0.005 A 
ATOM     18  C   UNL     1       1.227  -2.058  -0.118  0.00  0.00    +0.026 A 
ATOM     19  C   UNL     1       0.040  -2.771  -0.013  0.00  0.00    +0.052 A 
ATOM     20  C   UNL     1      -1.166  -2.091   0.099  0.00  0.00    +0.026 A 
ATOM     21  C   UNL     1      -1.180  -0.710   0.111  0.00  0.00    +0.005 A 
ENDBRANCH   1  19
BRANCH  10  22
ATOM     22  S   UNL     1      -0.195  -3.922  -2.709  0.00  0.00    -0.078 S 
BRANCH  22  23
ATOM     23  C   UNL     1      -0.296  -5.198  -3.994  0.00  0.00    +0.174 C 
BRANCH  23  24
ATOM     24  C   UNL     1      -0.431  -4.542  -5.344  0.00  0.00    +0.242 C 
ATOM     25  O   UNL     1      -0.456  -3.332  -5.430  0.00  0.00    -0.273 OA
ATOM     26  N   UNL     1      -0.523  -5.299  -6.455  0.00  0.00    -0.206 N 
ATOM     27  H   UNL     1      -0.503  -6.266  -6.386  0.00  0.00    +0.177 HD
BRANCH  26  28
ATOM     28  N   UNL     1      -0.648  -4.689  -7.710  0.00  0.00    -0.188 NA
ATOM     29  C   UNL     1      -0.738  -5.418  -8.780  0.00  0.00    +0.142 C 
BRANCH  29  30
ATOM     30  C   UNL     1      -0.869  -4.777 -10.100  0.00  0.00    +0.040 A 
ATOM     31  C   UNL     1      -0.971  -5.560 -11.254  0.00  0.00    +0.062 A 
ATOM     32  C   UNL     1      -1.095  -4.954 -12.488  0.00  0.00    +0.162 A 
ATOM     33  C   UNL     1      -1.117  -3.564 -12.586  0.00  0.00    +0.165 A 
ATOM     34  C   UNL     1      -1.016  -2.782 -11.446  0.00  0.00    +0.095 A 
ATOM     35  C   UNL     1      -0.898  -3.380 -10.203  0.00  0.00    +0.132 A 
BRANCH  35  36
ATOM     36  O   UNL     1      -0.804  -2.613  -9.085  0.00  0.00    -0.494 OA
ATOM     37  C   UNL     1      -0.841  -1.196  -9.265  0.00  0.00    +0.277 C 
ENDBRANCH  35  36
BRANCH  33  38
ATOM     38  O   UNL     1      -1.239  -2.973 -13.804  0.00  0.00    -0.491 OA
ATOM     39  C   UNL     1      -1.255  -1.544 -13.833  0.00  0.00    +0.277 C 
ENDBRANCH  33  38
BRANCH  32  40
ATOM     40  O   UNL     1      -1.194  -5.715 -13.611  0.00  0.00    -0.491 OA
ATOM     41  C   UNL     1      -1.164  -7.134 -13.439  0.00  0.00    +0.277 C 
ENDBRANCH  32  40
ENDBRANCH  29  30
ENDBRANCH  26  28
ENDBRANCH  23  24
ENDBRANCH  22  23
ENDBRANCH  10  22
TORSDOF 9
