REMARK  Name = ZINC35746547
REMARK  15 active torsions:
REMARK  status: ('A' for Active; 'I' for Inactive)
REMARK    1  A    between atoms: C_1  and  C_2
REMARK    2  A    between atoms: C_2  and  C_3
REMARK    3  A    between atoms: C_2  and  C_4
REMARK    4  A    between atoms: C_4  and  C_5
REMARK    5  A    between atoms: C_5  and  N_6
REMARK    6  A    between atoms: N_6  and  C_7
REMARK    7  A    between atoms: N_6  and  C_27
REMARK    8  A    between atoms: C_7  and  C_8
REMARK    9  A    between atoms: C_14  and  C_19
REMARK   10  A    between atoms: C_24  and  O_25
REMARK   11  A    between atoms: O_25  and  C_26
REMARK   12  A    between atoms: C_27  and  C_28
REMARK   13  A    between atoms: C_28  and  C_30
REMARK   14  A    between atoms: C_28  and  O_37
REMARK   15  A    between atoms: C_30  and  C_31
REMARK                            x       y       z     vdW  Elec       q    Type
REMARK                         _______ _______ _______ _____ _____    ______ ____
ROOT
ATOM      1  C   UNL     1      -3.106  -3.910  -0.027  0.00  0.00    -0.003 C 
ENDROOT
BRANCH   1   2
ATOM      2  C   UNL     1      -2.671  -4.381   1.337  0.00  0.00    +0.094 A 
ATOM      3  N   UNL     1      -2.769  -5.698   1.651  0.00  0.00    -0.312 N 
ATOM      4  H   UNL     1      -3.118  -6.319   0.992  0.00  0.00    +0.170 HD
ATOM      5  C   UNL     1      -2.392  -6.159   2.858  0.00  0.00    +0.260 A 
ATOM      6  O   UNL     1      -2.486  -7.345   3.124  0.00  0.00    -0.267 OA
ATOM      7  C   UNL     1      -1.878  -5.236   3.824  0.00  0.00    +0.080 A 
ATOM      8  C   UNL     1      -1.409  -5.487   5.181  0.00  0.00    +0.007 A 
ATOM      9  C   UNL     1      -0.961  -4.443   5.919  0.00  0.00    +0.056 A 
ATOM     10  S   UNL     1      -1.146  -3.052   4.820  0.00  0.00    -0.076 S 
ATOM     11  C   UNL     1      -1.814  -3.896   3.410  0.00  0.00    +0.116 A 
ATOM     12  N   UNL     1      -2.202  -3.515   2.195  0.00  0.00    -0.229 NA
BRANCH   8  13
ATOM     13  C   UNL     1      -1.423  -6.858   5.744  0.00  0.00    +0.025 A 
ATOM     14  C   UNL     1      -2.251  -7.164   6.822  0.00  0.00    +0.012 A 
ATOM     15  C   UNL     1      -2.261  -8.443   7.342  0.00  0.00    +0.001 A 
ATOM     16  C   UNL     1      -1.451  -9.423   6.796  0.00  0.00    +0.004 A 
ATOM     17  C   UNL     1      -0.625  -9.130   5.726  0.00  0.00    +0.046 A 
ATOM     18  C   UNL     1      -0.610  -7.853   5.191  0.00  0.00    +0.128 A 
BRANCH  18  19
ATOM     19  O   UNL     1       0.197  -7.565   4.136  0.00  0.00    -0.495 OA
ATOM     20  C   UNL     1       1.000  -8.631   3.624  0.00  0.00    +0.277 C 
ENDBRANCH  18  19
ENDBRANCH   8  13
ENDBRANCH   1   2
BRANCH   1  21
ATOM     21  N   UNL     1      -2.901  -2.459  -0.133  0.00  0.00    +0.386 N 
ATOM     22  H   UNL     1      -3.380  -1.996   0.624  0.00  0.00    -0.081 HD
BRANCH  21  23
ATOM     23  C   UNL     1      -1.464  -2.161  -0.058  0.00  0.00    -0.078 C 
BRANCH  23  24
ATOM     24  C   UNL     1      -0.752  -2.775  -1.266  0.00  0.00    -0.016 C 
BRANCH  24  26
ATOM     25  C   UNL     1       1.478  -3.306  -2.260  0.00  0.00    +0.007 C 
ATOM     26  C   UNL     1       0.758  -2.584  -1.118  0.00  0.00    -0.019 C 
ATOM     27  C   UNL     1       1.092  -1.092  -1.167  0.00  0.00    +0.007 C 
ENDBRANCH  24  26
ENDBRANCH  23  24
ENDBRANCH  21  23
BRANCH  21  28
ATOM     28  C   UNL     1      -3.434  -1.982  -1.416  0.00  0.00    -0.046 C 
BRANCH  28  29
ATOM     29  C   UNL     1      -3.342  -0.456  -1.470  0.00  0.00    +0.102 C 
BRANCH  29  30
ATOM     30  O   UNL     1      -4.133   0.107  -0.421  0.00  0.00    -0.393 OA
ATOM     31  H   UNL     1      -5.071  -0.124  -0.469  0.00  0.00    +0.210 HD
ENDBRANCH  29  30
BRANCH  29  32
ATOM     32  C   UNL     1      -3.861   0.039  -2.821  0.00  0.00    +0.064 C 
BRANCH  32  33
ATOM     33  C   UNL     1      -3.657   1.529  -2.923  0.00  0.00    -0.045 A 
ATOM     34  C   UNL     1      -4.642   2.393  -2.483  0.00  0.00    +0.004 A 
ATOM     35  C   UNL     1      -4.455   3.759  -2.576  0.00  0.00    +0.000 A 
ATOM     36  C   UNL     1      -3.283   4.262  -3.109  0.00  0.00    +0.000 A 
ATOM     37  C   UNL     1      -2.297   3.398  -3.548  0.00  0.00    +0.000 A 
ATOM     38  C   UNL     1      -2.482   2.031  -3.451  0.00  0.00    +0.004 A 
ENDBRANCH  32  33
ENDBRANCH  29  32
ENDBRANCH  28  29
ENDBRANCH  21  28
ENDBRANCH   1  21
TORSDOF 12
