REMARK  Name = ZINC01180064
REMARK  11 active torsions:
REMARK  status: ('A' for Active; 'I' for Inactive)
REMARK    1  A    between atoms: C_1  and  C_2
REMARK    2  A    between atoms: C_2  and  C_3
REMARK    3  A    between atoms: C_3  and  C_5
REMARK    4  A    between atoms: C_3  and  C_6
REMARK    5  A    between atoms: C_9  and  O_30
REMARK    6  A    between atoms: C_10  and  N_12
REMARK    7  A    between atoms: N_12  and  C_13
REMARK    8  A    between atoms: C_13  and  N_15
REMARK    9  A    between atoms: C_16  and  C_18
REMARK   10  A    between atoms: C_27  and  O_28
REMARK   11  A    between atoms: O_28  and  C_29
REMARK                            x       y       z     vdW  Elec       q    Type
REMARK                         _______ _______ _______ _____ _____    ______ ____
ROOT
ATOM      1  C   UNL     1      -2.374  -0.071   0.127  0.00  0.00    +0.141 C 
ATOM      2  S   UNL     1      -2.406   1.641   0.137  0.00  0.00    -0.018 S 
ENDROOT
BRANCH   1   3
ATOM      3  N   UNL     1      -3.523  -0.767   0.236  0.00  0.00    -0.263 N 
ATOM      4  C   UNL     1      -4.697  -0.115   0.353  0.00  0.00    +0.253 C 
ATOM      5  O   UNL     1      -4.720   1.100   0.360  0.00  0.00    -0.270 OA
ATOM      6  H   UNL     1      -3.506  -1.737   0.231  0.00  0.00    +0.157 HD
BRANCH   4   7
ATOM      7  C   UNL     1      -5.955  -0.877   0.473  0.00  0.00    +0.079 A 
ATOM      8  C   UNL     1      -5.924  -2.262   0.464  0.00  0.00    +0.025 A 
ATOM      9  C   UNL     1      -7.123  -2.980   0.578  0.00  0.00    -0.017 A 
ATOM     10  C   UNL     1      -7.129  -4.388   0.574  0.00  0.00    +0.008 A 
ATOM     11  C   UNL     1      -8.309  -5.056   0.686  0.00  0.00    +0.001 A 
ATOM     12  C   UNL     1      -9.515  -4.368   0.807  0.00  0.00    +0.001 A 
ATOM     13  C   UNL     1      -9.549  -3.008   0.815  0.00  0.00    +0.008 A 
ATOM     14  C   UNL     1      -8.351  -2.280   0.701  0.00  0.00    -0.014 A 
ATOM     15  C   UNL     1      -8.355  -0.875   0.706  0.00  0.00    +0.055 A 
ATOM     16  C   UNL     1      -7.181  -0.190   0.601  0.00  0.00    +0.133 A 
BRANCH  16  17
ATOM     17  O   UNL     1      -7.192   1.167   0.613  0.00  0.00    -0.494 OA
ATOM     18  C   UNL     1      -8.465   1.804   0.745  0.00  0.00    +0.277 C 
ENDBRANCH  16  17
ENDBRANCH   4   7
ENDBRANCH   1   3
BRANCH   1  19
ATOM     19  N   UNL     1      -1.200  -0.723   0.010  0.00  0.00    -0.294 N 
ATOM     20  H   UNL     1      -1.188  -1.689  -0.075  0.00  0.00    +0.154 HD
BRANCH  19  25
ATOM     21  C   UNL     1       1.392   1.719   0.934  0.00  0.00    -0.043 A 
ATOM     22  C   UNL     1       2.381   1.415   0.016  0.00  0.00    +0.007 A 
ATOM     23  C   UNL     1       2.188   0.402  -0.905  0.00  0.00    +0.047 A 
ATOM     24  C   UNL     1       1.000  -0.311  -0.912  0.00  0.00    +0.138 A 
ATOM     25  C   UNL     1       0.003  -0.005   0.012  0.00  0.00    +0.075 A 
ATOM     26  C   UNL     1       0.204   1.012   0.934  0.00  0.00    +0.031 A 
BRANCH  21  27
ATOM     27  C   UNL     1       1.609   2.824   1.935  0.00  0.00    +0.016 C 
ATOM     28  C   UNL     1       2.828   2.495   2.800  0.00  0.00    +0.012 C 
BRANCH  27  30
ATOM     29  C   UNL     1       1.945   5.284   2.210  0.00  0.00    +0.004 C 
ATOM     30  C   UNL     1       1.848   4.142   1.196  0.00  0.00    +0.004 C 
ENDBRANCH  27  30
ENDBRANCH  21  27
BRANCH  24  31
ATOM     31  O   UNL     1       0.808  -1.306  -1.818  0.00  0.00    -0.505 OA
ATOM     32  H   UNL     1       0.406  -1.012  -2.647  0.00  0.00    +0.292 HD
ENDBRANCH  24  31
ENDBRANCH  19  25
ENDBRANCH   1  19
TORSDOF 8
