REMARK  Name = ZINC44849666
REMARK  10 active torsions:
REMARK  status: ('A' for Active; 'I' for Inactive)
REMARK    1  A    between atoms: C_1  and  C_2
REMARK    2  A    between atoms: C_2  and  C_3
REMARK    3  A    between atoms: C_2  and  C_4
REMARK    4  A    between atoms: C_7  and  C_10
REMARK    5  A    between atoms: C_10  and  C_11
REMARK    6  A    between atoms: C_11  and  N_12
REMARK    7  A    between atoms: C_13  and  C_15
REMARK    8  A    between atoms: N_18  and  S_21
REMARK    9  A    between atoms: S_21  and  C_24
REMARK   10  A    between atoms: C_24  and  C_25
REMARK                            x       y       z     vdW  Elec       q    Type
REMARK                         _______ _______ _______ _____ _____    ______ ____
ROOT
ATOM      1  C   UNL     1     -10.112  -1.323  -1.221  0.00  0.00    +0.077 C 
ATOM      2  C   UNL     1     -10.162  -2.672  -1.942  0.00  0.00    +0.030 C 
ATOM      3  C   UNL     1     -11.594  -3.216  -1.899  0.00  0.00    +0.110 C 
ATOM      4  N   UNL     1     -12.502  -2.202  -2.451  0.00  0.00    -0.181 NA
ATOM      5  C   UNL     1     -12.470  -0.845  -1.889  0.00  0.00    +0.110 C 
ATOM      6  C   UNL     1     -11.029  -0.327  -1.933  0.00  0.00    +0.030 C 
ENDROOT
BRANCH   1   8
ATOM      7  N   UNL     1      -7.711  -1.516  -0.658  0.00  0.00    -0.315 N 
ATOM      8  C   UNL     1      -8.698  -0.801  -1.232  0.00  0.00    +0.216 C 
ATOM      9  O   UNL     1      -8.449   0.263  -1.758  0.00  0.00    -0.276 OA
ATOM     10  H   UNL     1      -7.910  -2.368  -0.237  0.00  0.00    +0.149 HD
BRANCH   7  11
ATOM     11  C   UNL     1      -6.337  -1.009  -0.669  0.00  0.00    +0.109 C 
BRANCH  11  12
ATOM     12  C   UNL     1      -5.419  -2.005   0.043  0.00  0.00    +0.054 C 
BRANCH  12  16
ATOM     13  C   UNL     1      -1.412  -0.526   0.013  0.00  0.00    -0.045 A 
ATOM     14  C   UNL     1      -2.259  -0.204   1.056  0.00  0.00    +0.004 A 
ATOM     15  C   UNL     1      -3.556  -0.683   1.066  0.00  0.00    +0.004 A 
ATOM     16  C   UNL     1      -4.006  -1.482   0.032  0.00  0.00    -0.046 A 
ATOM     17  C   UNL     1      -3.159  -1.803  -1.012  0.00  0.00    +0.004 A 
ATOM     18  C   UNL     1      -1.863  -1.321  -1.024  0.00  0.00    +0.004 A 
BRANCH  13  20
ATOM     19  C   UNL     1      -0.019   1.526   0.010  0.00  0.00    +0.012 C 
ATOM     20  C   UNL     1       0.002  -0.004   0.002  0.00  0.00    +0.013 C 
ATOM     21  C   UNL     1       0.742  -0.511   1.242  0.00  0.00    +0.012 C 
ENDBRANCH  13  20
ENDBRANCH  12  16
ENDBRANCH  11  12
ENDBRANCH   7  11
ENDBRANCH   1   8
BRANCH   4  22
ATOM     22  S   UNL     1     -13.542  -2.582  -3.682  0.00  0.00    +0.036 S 
ATOM     23  O   UNL     1     -13.778  -1.350  -4.350  0.00  0.00    -0.158 OA
ATOM     24  O   UNL     1     -12.922  -3.666  -4.360  0.00  0.00    -0.158 OA
BRANCH  22  25
ATOM     25  C   UNL     1     -15.056  -3.145  -2.857  0.00  0.00    +0.220 C 
BRANCH  25  26
ATOM     26  C   UNL     1     -16.084  -3.520  -3.894  0.00  0.00    -0.025 A 
ATOM     27  C   UNL     1     -16.966  -2.568  -4.369  0.00  0.00    +0.006 A 
ATOM     28  C   UNL     1     -17.908  -2.912  -5.320  0.00  0.00    +0.015 A 
ATOM     29  C   UNL     1     -17.968  -4.209  -5.796  0.00  0.00    +0.018 A 
ATOM     30  C   UNL     1     -17.085  -5.162  -5.321  0.00  0.00    +0.015 A 
ATOM     31  C   UNL     1     -16.140  -4.816  -4.374  0.00  0.00    +0.006 A 
ATOM     32 BR   UNL     1     -19.257  -4.680  -7.097  0.00  0.00    -0.050 Br
ENDBRANCH  25  26
ENDBRANCH  22  25
ENDBRANCH   4  22
TORSDOF 8
