REMARK  Name = ZINC36580455
REMARK  16 active torsions:
REMARK  status: ('A' for Active; 'I' for Inactive)
REMARK    1  A    between atoms: C_1  and  C_2
REMARK    2  A    between atoms: C_2  and  C_3
REMARK    3  A    between atoms: C_2  and  C_4
REMARK    4  A    between atoms: C_2  and  C_5
REMARK    5  A    between atoms: C_5  and  C_6
REMARK    6  A    between atoms: C_6  and  C_7
REMARK    7  A    between atoms: C_6  and  C_8
REMARK    8  A    between atoms: C_6  and  N_9
REMARK    9  A    between atoms: C_10  and  C_12
REMARK   10  A    between atoms: C_12  and  C_14
REMARK   11  A    between atoms: C_12  and  N_21
REMARK   12  A    between atoms: N_21  and  C_30
REMARK   13  A    between atoms: C_22  and  C_24
REMARK   14  A    between atoms: C_30  and  C_31
REMARK   15  A    between atoms: C_30  and  C_32
REMARK   16  A    between atoms: C_30  and  C_33
REMARK                            x       y       z     vdW  Elec       q    Type
REMARK                         _______ _______ _______ _____ _____    ______ ____
ROOT
ATOM      1  C   UNL     1       5.808   1.891  -4.861  0.00  0.00    +0.193 C 
ENDROOT
BRANCH   1   2
ATOM      2  C   UNL     1       5.554   2.803  -6.035  0.00  0.00    -0.018 A 
ATOM      3  C   UNL     1       6.352   3.915  -6.231  0.00  0.00    +0.007 A 
ATOM      4  C   UNL     1       6.120   4.751  -7.307  0.00  0.00    +0.020 A 
ATOM      5  C   UNL     1       5.090   4.474  -8.188  0.00  0.00    +0.041 A 
ATOM      6  C   UNL     1       4.292   3.361  -7.991  0.00  0.00    +0.020 A 
ATOM      7  C   UNL     1       4.529   2.523  -6.918  0.00  0.00    +0.007 A 
ATOM      8 CL   UNL     1       4.798   5.524  -9.539  0.00  0.00    -0.084 Cl
ENDBRANCH   1   2
BRANCH   1  10
ATOM      9  N   UNL     1       3.668   2.362  -3.713  0.00  0.00    -0.308 N 
ATOM     10  C   UNL     1       5.015   2.371  -3.673  0.00  0.00    +0.239 C 
ATOM     11  O   UNL     1       5.590   2.765  -2.680  0.00  0.00    -0.273 OA
ATOM     12  H   UNL     1       3.209   2.047  -4.507  0.00  0.00    +0.149 HD
BRANCH   9  13
ATOM     13  C   UNL     1       2.898   2.828  -2.557  0.00  0.00    +0.030 C 
ATOM     14  C   UNL     1       3.480   4.152  -2.057  0.00  0.00    +0.031 C 
ATOM     15  C   UNL     1       2.970   1.784  -1.441  0.00  0.00    +0.031 C 
BRANCH  13  16
ATOM     16  C   UNL     1       1.438   3.035  -2.968  0.00  0.00    +0.031 C 
BRANCH  16  18
ATOM     17  C   UNL     1       1.615   2.683  -5.435  0.00  0.00    +0.010 C 
ATOM     18  C   UNL     1       1.385   3.721  -4.334  0.00  0.00    -0.036 C 
ATOM     19  C   UNL     1       2.474   4.793  -4.410  0.00  0.00    +0.010 C 
ATOM     20  C   UNL     1       0.014   4.372  -4.525  0.00  0.00    +0.010 C 
ENDBRANCH  16  18
ENDBRANCH  13  16
ENDBRANCH   9  13
ENDBRANCH   1  10
BRANCH   1  21
ATOM     21  N   UNL     1       7.236   1.903  -4.533  0.00  0.00    -0.281 N 
ATOM     22  C   UNL     1       7.776   2.972  -3.916  0.00  0.00    +0.220 C 
ATOM     23  O   UNL     1       7.061   3.775  -3.356  0.00  0.00    -0.275 OA
BRANCH  22  24
ATOM     24  C   UNL     1       9.270   3.170  -3.922  0.00  0.00    +0.075 C 
ATOM     25  C   UNL     1       9.932   2.080  -3.077  0.00  0.00    +0.013 C 
ATOM     26  C   UNL     1      11.449   2.280  -3.083  0.00  0.00    +0.001 C 
ATOM     27  C   UNL     1      11.784   3.654  -2.497  0.00  0.00    +0.000 C 
ATOM     28  C   UNL     1      11.122   4.744  -3.342  0.00  0.00    +0.001 C 
ATOM     29  C   UNL     1       9.605   4.543  -3.336  0.00  0.00    +0.013 C 
ENDBRANCH  22  24
BRANCH  21  30
ATOM     30  C   UNL     1       8.075   0.753  -4.876  0.00  0.00    +0.030 C 
ATOM     31  C   UNL     1       7.337  -0.138  -5.878  0.00  0.00    +0.031 C 
ATOM     32  C   UNL     1       9.384   1.244  -5.499  0.00  0.00    +0.031 C 
ATOM     33  C   UNL     1       8.383  -0.049  -3.610  0.00  0.00    +0.031 C 
ENDBRANCH  21  30
ENDBRANCH   1  21
TORSDOF 8
