REMARK  Name = ZINC62350523
REMARK  7 active torsions:
REMARK  status: ('A' for Active; 'I' for Inactive)
REMARK    1  A    between atoms: C_1  and  O_2
REMARK    2  A    between atoms: O_2  and  C_3
REMARK    3  A    between atoms: C_6  and  C_9
REMARK    4  A    between atoms: C_9  and  C_11
REMARK    5  A    between atoms: C_9  and  N_23
REMARK    6  A    between atoms: C_11  and  N_12
REMARK    7  A    between atoms: C_13  and  C_15
REMARK                            x       y       z     vdW  Elec       q    Type
REMARK                         _______ _______ _______ _____ _____    ______ ____
ROOT
ATOM      1  C   UNL     1      -4.979  -2.620   0.038  0.00  0.00    -0.020 C 
ENDROOT
BRANCH   1   2
ATOM      2  N   UNL     1      -4.768  -3.789   0.901  0.00  0.00    +0.385 N 
ATOM      3  C   UNL     1      -5.928  -4.691   0.768  0.00  0.00    -0.078 C 
ATOM      4  C   UNL     1      -5.486  -6.088   1.126  0.00  0.00    -0.019 C 
ATOM      5  C   UNL     1      -5.801  -6.420   2.596  0.00  0.00    -0.002 C 
ATOM      6  C   UNL     1      -5.511  -5.225   3.527  0.00  0.00    -0.002 C 
ATOM      7  C   UNL     1      -4.232  -4.514   3.167  0.00  0.00    -0.019 C 
ATOM      8  C   UNL     1      -4.557  -3.348   2.209  0.00  0.00    -0.078 C 
ATOM      9  H   UNL     1      -3.942  -4.278   0.587  0.00  0.00    -0.081 HD
ENDBRANCH   1   2
BRANCH   1  13
ATOM     10  C   UNL     1      -1.649   0.035   0.398  0.00  0.00    +0.120 A 
ATOM     11  C   UNL     1      -2.938   0.543   0.320  0.00  0.00    +0.046 A 
ATOM     12  C   UNL     1      -4.012  -0.317   0.203  0.00  0.00    +0.005 A 
ATOM     13  C   UNL     1      -3.804  -1.683   0.165  0.00  0.00    -0.059 A 
ATOM     14  C   UNL     1      -2.521  -2.192   0.243  0.00  0.00    +0.005 A 
ATOM     15  C   UNL     1      -1.443  -1.336   0.354  0.00  0.00    +0.046 A 
BRANCH  10  17
ATOM     16  C   UNL     1      -0.878   2.279   0.552  0.00  0.00    +0.277 C 
ATOM     17  O   UNL     1      -0.591   0.879   0.513  0.00  0.00    -0.495 OA
ENDBRANCH  10  17
ENDBRANCH   1  13
BRANCH   1  18
ATOM     18  C   UNL     1      -5.112  -3.076  -1.416  0.00  0.00    +0.094 C 
BRANCH  18  19
ATOM     19  N   UNL     1      -3.948  -3.888  -1.782  0.00  0.00    -0.313 N 
ATOM     20  C   UNL     1      -3.795  -4.313  -3.051  0.00  0.00    +0.245 C 
ATOM     21  O   UNL     1      -4.623  -4.023  -3.894  0.00  0.00    -0.270 OA
ATOM     22  H   UNL     1      -3.288  -4.120  -1.109  0.00  0.00    +0.149 HD
BRANCH  20  23
ATOM     23  C   UNL     1      -2.624  -5.130  -3.419  0.00  0.00    +0.053 A 
ATOM     24  C   UNL     1      -1.660  -5.477  -2.441  0.00  0.00    +0.020 A 
ATOM     25  C   UNL     1      -0.590  -6.231  -2.808  0.00  0.00    +0.071 A 
ATOM     26  C   UNL     1      -0.464  -6.650  -4.146  0.00  0.00    +0.249 A 
ATOM     27  O   UNL     1       0.494  -7.327  -4.480  0.00  0.00    -0.268 OA
ATOM     28  N   UNL     1      -1.392  -6.310  -5.059  0.00  0.00    -0.328 N 
ATOM     29  H   UNL     1      -1.290  -6.608  -5.976  0.00  0.00    +0.168 HD
ATOM     30  C   UNL     1      -2.462  -5.569  -4.718  0.00  0.00    +0.099 A 
ENDBRANCH  20  23
ENDBRANCH  18  19
ENDBRANCH   1  18
TORSDOF 6
