REMARK  Name = ZINC09251207
REMARK  5 active torsions:
REMARK  status: ('A' for Active; 'I' for Inactive)
REMARK    1  A    between atoms: C_7  and  N_25
REMARK    2  A    between atoms: C_8  and  C_10
REMARK    3  A    between atoms: N_15  and  C_18
REMARK    4  A    between atoms: C_26  and  C_28
REMARK    5  A    between atoms: C_28  and  C_29
REMARK                            x       y       z     vdW  Elec       q    Type
REMARK                         _______ _______ _______ _____ _____    ______ ____
ROOT
ATOM      1  C   UNL     1      -5.387   3.713  -0.771  0.00  0.00    +0.001 A 
ATOM      2  C   UNL     1      -4.642   4.883  -0.720  0.00  0.00    +0.004 A 
ATOM      3  C   UNL     1      -3.300   4.849  -0.407  0.00  0.00    +0.047 A 
ATOM      4  C   UNL     1      -2.682   3.633  -0.139  0.00  0.00    +0.138 A 
ATOM      5  C   UNL     1      -3.443   2.452  -0.192  0.00  0.00    +0.042 A 
ATOM      6  C   UNL     1      -4.800   2.507  -0.510  0.00  0.00    +0.013 A 
ATOM      7  C   UNL     1      -2.514   1.364   0.136  0.00  0.00    +0.092 A 
ATOM      8  C   UNL     1      -1.302   1.959   0.354  0.00  0.00    +0.212 A 
ATOM      9  O   UNL     1      -1.420   3.296   0.193  0.00  0.00    -0.448 OA
ENDROOT
BRANCH   8  10
ATOM     10  C   UNL     1      -0.070   1.258   0.712  0.00  0.00    +0.284 C 
ATOM     11  O   UNL     1       0.159   0.986   1.877  0.00  0.00    -0.267 OA
ATOM     12  N   UNL     1       0.809   0.908  -0.247  0.00  0.00    -0.292 N 
ATOM     13  C   UNL     1       0.495   1.111  -1.670  0.00  0.00    +0.127 C 
ATOM     14  C   UNL     1       1.667   1.865  -2.320  0.00  0.00    +0.124 C 
ATOM     15  N   UNL     1       2.916   1.137  -2.057  0.00  0.00    -0.325 N 
ATOM     16  C   UNL     1       3.212   1.088  -0.620  0.00  0.00    +0.124 C 
ATOM     17  C   UNL     1       2.107   0.308   0.100  0.00  0.00    +0.127 C 
BRANCH  15  18
ATOM     18  C   UNL     1       3.981   1.697  -2.770  0.00  0.00    +0.065 A 
ATOM     19  C   UNL     1       5.236   1.104  -2.726  0.00  0.00    +0.026 A 
ATOM     20  C   UNL     1       6.285   1.658  -3.434  0.00  0.00    +0.002 A 
ATOM     21  C   UNL     1       6.090   2.806  -4.179  0.00  0.00    +0.003 A 
ATOM     22  C   UNL     1       4.844   3.403  -4.222  0.00  0.00    +0.040 A 
ATOM     23  C   UNL     1       3.787   2.852  -3.519  0.00  0.00    +0.144 A 
ATOM     24  F   UNL     1       2.570   3.436  -3.561  0.00  0.00    -0.204 F 
ENDBRANCH  15  18
ENDBRANCH   8  10
BRANCH   7  25
ATOM     25  N   UNL     1      -2.806   0.007   0.209  0.00  0.00    -0.282 N 
ATOM     26  C   UNL     1      -4.059  -0.398   0.495  0.00  0.00    +0.218 C 
ATOM     27  O   UNL     1      -4.917   0.419   0.754  0.00  0.00    -0.275 OA
ATOM     28  H   UNL     1      -2.107  -0.648   0.056  0.00  0.00    +0.155 HD
BRANCH  26  29
ATOM     29  C   UNL     1      -4.395  -1.867   0.491  0.00  0.00    +0.099 C 
BRANCH  29  30
ATOM     30  C   UNL     1      -5.872  -2.053   0.844  0.00  0.00    -0.002 C 
ATOM     31  C   UNL     1      -6.119  -1.652   2.313  0.00  0.00    +0.004 C 
ATOM     32  C   UNL     1      -7.171  -2.672   2.814  0.00  0.00    +0.000 C 
ATOM     33  C   UNL     1      -6.730  -3.986   2.122  0.00  0.00    +0.000 C 
ATOM     34  C   UNL     1      -6.261  -3.537   0.723  0.00  0.00    +0.004 C 
ENDBRANCH  29  30
ENDBRANCH  26  29
ENDBRANCH   7  25
TORSDOF 5
