REMARK  Name = ZINC42552777
REMARK  7 active torsions:
REMARK  status: ('A' for Active; 'I' for Inactive)
REMARK    1  A    between atoms: C_1  and  C_2
REMARK    2  A    between atoms: C_2  and  C_3
REMARK    3  A    between atoms: C_3  and  C_5
REMARK    4  A    between atoms: C_3  and  C_6
REMARK    5  A    between atoms: C_6  and  C_8
REMARK    6  A    between atoms: C_6  and  N_9
REMARK    7  A    between atoms: N_9  and  C_10
REMARK                            x       y       z     vdW  Elec       q    Type
REMARK                         _______ _______ _______ _____ _____    ______ ____
ROOT
ATOM      1  C   UNL     1      -2.776  -4.018   0.373  0.00  0.00    +0.049 C 
ATOM      2  C   UNL     1      -4.179  -4.578   0.313  0.00  0.00    -0.031 A 
ATOM      3  C   UNL     1      -5.128  -4.621  -0.683  0.00  0.00    +0.005 A 
ATOM      4  C   UNL     1      -6.355  -5.214  -0.443  0.00  0.00    +0.015 A 
ATOM      5  C   UNL     1      -6.623  -5.762   0.799  0.00  0.00    +0.020 A 
ATOM      6  C   UNL     1      -5.673  -5.721   1.799  0.00  0.00    +0.038 A 
ATOM      7  C   UNL     1      -4.435  -5.125   1.564  0.00  0.00    +0.036 A 
ATOM      8  N   UNL     1      -3.329  -4.960   2.398  0.00  0.00    -0.286 N 
ATOM      9  C   UNL     1      -2.314  -4.324   1.782  0.00  0.00    +0.208 C 
ATOM     10  O   UNL     1      -1.235  -4.049   2.262  0.00  0.00    -0.277 OA
ATOM     11 BR   UNL     1      -8.300  -6.572   1.128  0.00  0.00    -0.050 Br
ATOM     12  H   UNL     1      -3.294  -5.269   3.317  0.00  0.00    +0.155 HD
ENDROOT
BRANCH   1  13
ATOM     13  N   UNL     1      -2.791  -2.567   0.141  0.00  0.00    +0.391 N 
ATOM     14  H   UNL     1      -3.312  -2.114   0.877  0.00  0.00    -0.084 HD
ATOM     15  H   UNL     1      -3.228  -2.374  -0.748  0.00  0.00    -0.084 HD
BRANCH  13  16
ATOM     16  C   UNL     1      -1.413  -2.059   0.130  0.00  0.00    -0.071 C 
ATOM     17  C   UNL     1      -0.660  -2.652  -1.062  0.00  0.00    -0.013 C 
BRANCH  16  18
ATOM     18  C   UNL     1      -1.433  -0.534   0.013  0.00  0.00    -0.029 C 
ATOM     19  C   UNL     1      -2.135  -0.131  -1.286  0.00  0.00    +0.006 C 
BRANCH  18  21
ATOM     20  C   UNL     1      -0.019   1.526   0.010  0.00  0.00    +0.004 C 
ATOM     21  C   UNL     1       0.002  -0.004   0.002  0.00  0.00    -0.002 C 
ENDBRANCH  18  21
ENDBRANCH  16  18
ENDBRANCH  13  16
ENDBRANCH   1  13
TORSDOF 4
