REMARK  Name = ZINC38683235
REMARK  11 active torsions:
REMARK  status: ('A' for Active; 'I' for Inactive)
REMARK    1  A    between atoms: C_1  and  O_2
REMARK    2  A    between atoms: O_2  and  C_3
REMARK    3  A    between atoms: C_7  and  C_9
REMARK    4  A    between atoms: C_9  and  O_11
REMARK    5  A    between atoms: O_11  and  C_12
REMARK    6  A    between atoms: C_19  and  N_35
REMARK    7  A    between atoms: C_20  and  C_33
REMARK    8  A    between atoms: C_21  and  C_23
REMARK    9  A    between atoms: C_26  and  C_29
REMARK   10  A    between atoms: C_29  and  O_31
REMARK   11  A    between atoms: O_31  and  C_32
REMARK                            x       y       z     vdW  Elec       q    Type
REMARK                         _______ _______ _______ _____ _____    ______ ____
ROOT
ATOM      1  C   UNL     1      -3.864  -6.118  -0.010  0.00  0.00    +0.135 A 
ATOM      2  C   UNL     1      -2.725  -6.911   0.023  0.00  0.00    +0.047 A 
ATOM      3  C   UNL     1      -2.840  -8.287  -0.012  0.00  0.00    +0.012 A 
ATOM      4  C   UNL     1      -4.088  -8.880  -0.081  0.00  0.00    +0.008 A 
ATOM      5  C   UNL     1      -5.229  -8.093  -0.114  0.00  0.00    +0.138 A 
ATOM      6  C   UNL     1      -5.115  -6.710  -0.073  0.00  0.00    +0.093 A 
ATOM      7  O   UNL     1      -6.460  -8.656  -0.182  0.00  0.00    -0.441 OA
ATOM      8  C   UNL     1      -6.629  -9.943   0.164  0.00  0.00    +0.199 C 
ATOM      9  C   UNL     1      -5.593 -10.814   0.214  0.00  0.00    +0.098 C 
ATOM     10  C   UNL     1      -4.193 -10.382  -0.119  0.00  0.00    +0.098 C 
ENDROOT
BRANCH  10  11
ATOM     11  C   UNL     1      -3.834 -10.872  -1.499  0.00  0.00    -0.035 A 
ATOM     12  C   UNL     1      -4.569 -10.449  -2.592  0.00  0.00    +0.005 A 
ATOM     13  C   UNL     1      -4.246 -10.894  -3.858  0.00  0.00    +0.015 A 
ATOM     14  C   UNL     1      -3.175 -11.773  -4.033  0.00  0.00    +0.059 A 
ATOM     15  C   UNL     1      -2.438 -12.195  -2.925  0.00  0.00    +0.015 A 
ATOM     16  C   UNL     1      -2.768 -11.738  -1.666  0.00  0.00    +0.005 A 
BRANCH  14  17
ATOM     17  C   UNL     1      -2.824 -12.253  -5.385  0.00  0.00    +0.339 C 
ATOM     18  O   UNL     1      -3.467 -11.884  -6.347  0.00  0.00    -0.245 OA
BRANCH  17  19
ATOM     19  O   UNL     1      -1.790 -13.101  -5.551  0.00  0.00    -0.464 OA
ATOM     20  C   UNL     1      -1.507 -13.525  -6.886  0.00  0.00    +0.280 C 
ENDBRANCH  17  19
ENDBRANCH  14  17
ENDBRANCH  10  11
BRANCH   8  21
ATOM     21  N   UNL     1      -7.889 -10.389   0.478  0.00  0.00    -0.328 N 
ATOM     22  H   UNL     1      -8.641  -9.777   0.447  0.00  0.00    +0.145 HD
ATOM     23  H   UNL     1      -8.027 -11.315   0.730  0.00  0.00    +0.145 HD
ENDBRANCH   8  21
BRANCH   9  24
ATOM     24  C   UNL     1      -5.837 -12.174   0.591  0.00  0.00    +0.101 C 
ATOM     25  N   UNL     1      -6.030 -13.252   0.891  0.00  0.00    -0.191 NA
ENDBRANCH   9  24
BRANCH   1  26
ATOM     26  O   UNL     1      -3.752  -4.764   0.025  0.00  0.00    -0.422 OA
BRANCH  26  27
ATOM     27  C   UNL     1      -3.385  -4.131  -1.107  0.00  0.00    +0.345 C 
ATOM     28  O   UNL     1      -3.080  -4.774  -2.091  0.00  0.00    -0.245 OA
BRANCH  27  33
ATOM     29  C   UNL     1      -2.950  -0.612  -2.354  0.00  0.00    +0.121 A 
ATOM     30  C   UNL     1      -3.301   0.117  -1.225  0.00  0.00    +0.045 A 
ATOM     31  C   UNL     1      -3.677  -0.534  -0.065  0.00  0.00    +0.004 A 
ATOM     32  C   UNL     1      -3.706  -1.913  -0.020  0.00  0.00    +0.015 A 
ATOM     33  C   UNL     1      -3.355  -2.655  -1.150  0.00  0.00    +0.063 A 
ATOM     34  C   UNL     1      -2.981  -1.996  -2.322  0.00  0.00    +0.060 A 
BRANCH  29  36
ATOM     35  C   UNL     1      -2.572   1.462  -3.453  0.00  0.00    +0.277 C 
ATOM     36  O   UNL     1      -2.581   0.034  -3.491  0.00  0.00    -0.495 OA
ENDBRANCH  29  36
ENDBRANCH  27  33
ENDBRANCH  26  27
ENDBRANCH   1  26
TORSDOF 9
