REMARK  Name = ZINC61195589
REMARK  7 active torsions:
REMARK  status: ('A' for Active; 'I' for Inactive)
REMARK    1  A    between atoms: C_4  and  S_21
REMARK    2  A    between atoms: C_5  and  C_7
REMARK    3  A    between atoms: N_9  and  N_10
REMARK    4  A    between atoms: N_10  and  C_11
REMARK    5  A    between atoms: C_16  and  C_17
REMARK    6  A    between atoms: S_21  and  C_22
REMARK    7  A    between atoms: C_22  and  C_23
REMARK                            x       y       z     vdW  Elec       q    Type
REMARK                         _______ _______ _______ _____ _____    ______ ____
ROOT
ATOM      1  C   UNL     1       1.250  -2.158  -0.023  0.00  0.00    +0.261 C 
ATOM      2  O   UNL     1       2.314  -2.747  -0.037  0.00  0.00    -0.269 OA
ATOM      3  N   UNL     1       0.095  -2.854  -0.015  0.00  0.00    -0.232 N 
ATOM      4  H   UNL     1      -0.754  -2.384  -0.003  0.00  0.00    +0.173 HD
ENDROOT
BRANCH   1   9
ATOM      5  C   UNL     1      -0.017   1.373   0.010  0.00  0.00    +0.001 A 
ATOM      6  C   UNL     1       1.170   2.090   0.002  0.00  0.00    +0.001 A 
ATOM      7  C   UNL     1       2.383   1.434  -0.013  0.00  0.00    +0.015 A 
ATOM      8  C   UNL     1       2.423   0.044  -0.022  0.00  0.00    +0.020 A 
ATOM      9  C   UNL     1       1.222  -0.685  -0.014  0.00  0.00    +0.052 A 
ATOM     10  C   UNL     1       0.002  -0.004   0.002  0.00  0.00    +0.014 A 
BRANCH   8  11
ATOM     11  S   UNL     1       3.970  -0.797  -0.043  0.00  0.00    -0.122 S 
BRANCH  11  12
ATOM     12  C   UNL     1       5.197   0.539  -0.048  0.00  0.00    +0.106 C 
BRANCH  12  13
ATOM     13  C   UNL     1       6.604  -0.060  -0.066  0.00  0.00    +0.128 C 
ATOM     14  C   UNL     1       7.669   1.064   0.001  0.00  0.00    +0.034 C 
ATOM     15  C   UNL     1       8.873   0.294   0.609  0.00  0.00    +0.031 C 
ATOM     16  C   UNL     1       8.177  -0.708   1.555  0.00  0.00    +0.160 C 
ATOM     17  O   UNL     1       6.823  -0.855   1.111  0.00  0.00    -0.376 OA
ENDBRANCH  12  13
ENDBRANCH  11  12
ENDBRANCH   8  11
ENDBRANCH   1   9
BRANCH   3  18
ATOM     18  N   UNL     1       0.121  -4.255  -0.024  0.00  0.00    -0.264 N 
ATOM     19  H   UNL     1       0.970  -4.724  -0.035  0.00  0.00    +0.170 HD
BRANCH  18  20
ATOM     20  C   UNL     1      -1.075  -4.975  -0.016  0.00  0.00    +0.056 A 
ATOM     21  C   UNL     1      -2.292  -4.304  -0.005  0.00  0.00    +0.025 A 
ATOM     22  C   UNL     1      -3.473  -5.020   0.003  0.00  0.00    +0.002 A 
ATOM     23  C   UNL     1      -3.446  -6.403   0.000  0.00  0.00    +0.001 A 
ATOM     24  C   UNL     1      -2.236  -7.074  -0.010  0.00  0.00    +0.014 A 
ATOM     25  C   UNL     1      -1.051  -6.364  -0.024  0.00  0.00    +0.077 A 
BRANCH  25  26
ATOM     26  C   UNL     1       0.266  -7.096  -0.042  0.00  0.00    +0.419 C 
ATOM     27  F   UNL     1       0.033  -8.475  -0.048  0.00  0.00    -0.166 F 
ATOM     28  F   UNL     1       0.982  -6.739  -1.190  0.00  0.00    -0.166 F 
ATOM     29  F   UNL     1       1.006  -6.752   1.095  0.00  0.00    -0.166 F 
ENDBRANCH  25  26
ENDBRANCH  18  20
ENDBRANCH   3  18
TORSDOF 7
