REMARK  Name = ZINC65168441
REMARK  11 active torsions:
REMARK  status: ('A' for Active; 'I' for Inactive)
REMARK    1  A    between atoms: C_1  and  C_2
REMARK    2  A    between atoms: C_2  and  N_3
REMARK    3  A    between atoms: C_7  and  C_26
REMARK    4  A    between atoms: C_8  and  C_25
REMARK    5  A    between atoms: C_12  and  S_13
REMARK    6  A    between atoms: S_13  and  C_14
REMARK    7  A    between atoms: C_14  and  C_15
REMARK    8  A    between atoms: C_15  and  C_16
REMARK    9  A    between atoms: C_15  and  O_24
REMARK   10  A    between atoms: C_16  and  N_17
REMARK   11  A    between atoms: C_20  and  C_23
REMARK                            x       y       z     vdW  Elec       q    Type
REMARK                         _______ _______ _______ _____ _____    ______ ____
ROOT
ATOM      1  N   UNL     1       0.635  -1.153  -1.004  0.00  0.00    -0.288 N 
ATOM      2  C   UNL     1      -0.084  -1.459  -2.099  0.00  0.00    +0.263 A 
ATOM      3  O   UNL     1      -1.301  -1.391  -2.078  0.00  0.00    -0.267 OA
ATOM      4  C   UNL     1       0.598  -1.865  -3.289  0.00  0.00    +0.075 A 
ATOM      5  C   UNL     1       0.050  -2.241  -4.581  0.00  0.00    -0.026 A 
ATOM      6  C   UNL     1       0.885  -2.591  -5.570  0.00  0.00    -0.008 A 
ATOM      7  S   UNL     1       2.497  -2.440  -4.825  0.00  0.00    -0.073 S 
ATOM      8  C   UNL     1       2.003  -1.910  -3.205  0.00  0.00    +0.117 A 
ATOM      9  N   UNL     1       2.652  -1.594  -2.091  0.00  0.00    -0.216 NA
ATOM     10  C   UNL     1       1.998  -1.218  -1.011  0.00  0.00    +0.173 A 
ATOM     11  C   UNL     1       0.542  -3.013  -6.976  0.00  0.00    +0.052 C 
ATOM     12  C   UNL     1      -1.440  -2.236  -4.807  0.00  0.00    +0.045 C 
ENDROOT
BRANCH   1  14
ATOM     13  C   UNL     1      -0.236   0.783   0.210  0.00  0.00    +0.027 C 
ATOM     14  C   UNL     1      -0.058  -0.736   0.218  0.00  0.00    +0.124 C 
ENDBRANCH   1  14
BRANCH  10  15
ATOM     15  S   UNL     1       2.896  -0.800   0.447  0.00  0.00    -0.085 S 
BRANCH  15  16
ATOM     16  C   UNL     1       4.632  -1.029  -0.026  0.00  0.00    +0.106 C 
BRANCH  16  17
ATOM     17  C   UNL     1       5.533  -0.695   1.165  0.00  0.00    +0.108 C 
BRANCH  17  18
ATOM     18  O   UNL     1       5.301  -1.635   2.216  0.00  0.00    -0.393 OA
ATOM     19  H   UNL     1       5.481  -2.553   1.971  0.00  0.00    +0.210 HD
ENDBRANCH  17  18
BRANCH  17  20
ATOM     20  C   UNL     1       6.999  -0.768   0.731  0.00  0.00    -0.046 C 
BRANCH  20  21
ATOM     21  N   UNL     1       7.864  -0.435   1.871  0.00  0.00    +0.381 N 
ATOM     22  C   UNL     1       9.267  -0.653   1.499  0.00  0.00    -0.078 C 
ATOM     23  C   UNL     1      10.166  -0.386   2.707  0.00  0.00    -0.016 C 
ATOM     24  C   UNL     1       9.978   1.063   3.166  0.00  0.00    -0.018 C 
ATOM     25  C   UNL     1       8.498   1.300   3.481  0.00  0.00    -0.016 C 
ATOM     26  C   UNL     1       7.660   0.970   2.244  0.00  0.00    -0.078 C 
ATOM     27  C   UNL     1      10.814   1.315   4.423  0.00  0.00    +0.007 C 
ATOM     28  H   UNL     1       7.629  -1.027   2.654  0.00  0.00    -0.082 HD
ENDBRANCH  20  21
ENDBRANCH  17  20
ENDBRANCH  16  17
ENDBRANCH  15  16
ENDBRANCH  10  15
TORSDOF 7
