REMARK  Name = ZINC40315991
REMARK  13 active torsions:
REMARK  status: ('A' for Active; 'I' for Inactive)
REMARK    1  A    between atoms: C_1  and  C_2
REMARK    2  A    between atoms: C_2  and  C_3
REMARK    3  A    between atoms: C_2  and  C_4
REMARK    4  A    between atoms: C_7  and  O_10
REMARK    5  A    between atoms: O_10  and  C_11
REMARK    6  A    between atoms: C_11  and  C_12
REMARK    7  A    between atoms: C_12  and  C_14
REMARK    8  A    between atoms: C_12  and  O_37
REMARK    9  A    between atoms: C_14  and  N_15
REMARK   10  A    between atoms: N_15  and  C_16
REMARK   11  A    between atoms: N_15  and  C_29
REMARK   12  A    between atoms: C_16  and  C_17
REMARK   13  A    between atoms: C_20  and  C_22
REMARK                            x       y       z     vdW  Elec       q    Type
REMARK                         _______ _______ _______ _____ _____    ______ ____
ROOT
ATOM      1  N   UNL     1      -8.924  -4.160  -2.269  0.00  0.00    +0.389 N 
ATOM      2  H   UNL     1      -9.590  -3.509  -2.658  0.00  0.00    -0.081 HD
ENDROOT
BRANCH   1   3
ATOM      3  C   UNL     1      -9.046  -4.168  -0.805  0.00  0.00    -0.045 C 
ATOM      4  C   UNL     1     -10.514  -4.390  -0.406  0.00  0.00    +0.009 C 
ATOM      5  C   UNL     1     -10.705  -4.083   1.098  0.00  0.00    +0.164 C 
ATOM      6  S   UNL     1      -9.390  -2.839   1.427  0.00  0.00    -0.033 S 
ATOM      7  O   UNL     1      -8.471  -3.376   2.368  0.00  0.00    -0.174 OA
ATOM      8  O   UNL     1      -9.998  -1.581   1.682  0.00  0.00    -0.174 OA
ATOM      9  C   UNL     1      -8.592  -2.794  -0.233  0.00  0.00    +0.151 C 
ENDBRANCH   1   3
BRANCH   1  10
ATOM     10  C   UNL     1      -7.564  -3.754  -2.645  0.00  0.00    -0.043 C 
BRANCH  10  11
ATOM     11  C   UNL     1      -7.617  -2.413  -3.381  0.00  0.00    +0.135 C 
BRANCH  11  12
ATOM     12  O   UNL     1      -8.306  -2.579  -4.623  0.00  0.00    -0.390 OA
ATOM     13  H   UNL     1      -7.892  -3.216  -5.220  0.00  0.00    +0.210 HD
ENDBRANCH  11  12
BRANCH  11  14
ATOM     14  C   UNL     1      -6.194  -1.922  -3.650  0.00  0.00    +0.258 C 
BRANCH  14  15
ATOM     15  O   UNL     1      -6.242  -0.618  -4.232  0.00  0.00    -0.489 OA
BRANCH  15  19
ATOM     16  C   UNL     1      -2.634   1.160  -5.148  0.00  0.00    -0.045 A 
ATOM     17  C   UNL     1      -3.817   1.826  -5.408  0.00  0.00    +0.007 A 
ATOM     18  C   UNL     1      -5.026   1.233  -5.102  0.00  0.00    +0.046 A 
ATOM     19  C   UNL     1      -5.053  -0.032  -4.534  0.00  0.00    +0.121 A 
ATOM     20  C   UNL     1      -3.865  -0.699  -4.275  0.00  0.00    +0.046 A 
ATOM     21  C   UNL     1      -2.658  -0.104  -4.588  0.00  0.00    +0.007 A 
BRANCH  16  23
ATOM     22  C   UNL     1      -1.258   2.105  -6.982  0.00  0.00    +0.012 C 
ATOM     23  C   UNL     1      -1.315   1.809  -5.482  0.00  0.00    +0.013 C 
ATOM     24  C   UNL     1      -1.178   3.116  -4.699  0.00  0.00    +0.012 C 
ENDBRANCH  16  23
ENDBRANCH  15  19
ENDBRANCH  14  15
ENDBRANCH  11  14
ENDBRANCH  10  11
ENDBRANCH   1  10
BRANCH   1  25
ATOM     25  C   UNL     1      -9.194  -5.507  -2.789  0.00  0.00    -0.003 C 
BRANCH  25  26
ATOM     26  C   UNL     1     -10.636  -5.865  -2.533  0.00  0.00    +0.089 A 
ATOM     27  C   UNL     1     -11.706  -5.251  -3.075  0.00  0.00    +0.043 A 
ATOM     28  C   UNL     1     -12.852  -5.897  -2.570  0.00  0.00    +0.050 A 
ATOM     29  C   UNL     1     -12.414  -6.881  -1.740  0.00  0.00    +0.135 A 
ATOM     30  O   UNL     1     -11.067  -6.853  -1.732  0.00  0.00    -0.462 OA
BRANCH  29  31
ATOM     31  C   UNL     1     -13.266  -7.821  -0.983  0.00  0.00    +0.019 A 
ATOM     32  C   UNL     1     -14.656  -7.748  -1.091  0.00  0.00    +0.011 A 
ATOM     33  C   UNL     1     -15.447  -8.628  -0.381  0.00  0.00    +0.002 A 
ATOM     34  C   UNL     1     -14.866  -9.582   0.436  0.00  0.00    +0.020 A 
ATOM     35  C   UNL     1     -13.488  -9.659   0.548  0.00  0.00    +0.042 A 
ATOM     36  C   UNL     1     -12.685  -8.788  -0.162  0.00  0.00    +0.031 A 
ATOM     37 CL   UNL     1     -12.768 -10.858   1.576  0.00  0.00    -0.084 Cl
ENDBRANCH  29  31
ENDBRANCH  25  26
ENDBRANCH   1  25
TORSDOF 11
