REMARK  Name = ZINC15547124
REMARK  7 active torsions:
REMARK  status: ('A' for Active; 'I' for Inactive)
REMARK    1  A    between atoms: C_1  and  C_2
REMARK    2  A    between atoms: C_2  and  C_3
REMARK    3  A    between atoms: C_12  and  C_13
REMARK    4  A    between atoms: C_12  and  N_46
REMARK    5  A    between atoms: N_15  and  C_16
REMARK    6  A    between atoms: C_20  and  S_22
REMARK    7  A    between atoms: S_22  and  N_25
REMARK                            x       y       z     vdW  Elec       q    Type
REMARK                         _______ _______ _______ _____ _____    ______ ____
ROOT
ATOM      1  C   UNL     1       6.406   2.909   0.993  0.00  0.00    +0.201 C 
ATOM      2  O   UNL     1       5.731   3.796   1.470  0.00  0.00    -0.278 OA
ATOM      3  N   UNL     1       7.734   3.080   0.842  0.00  0.00    -0.287 N 
ATOM      4  H   UNL     1       8.287   2.345   0.534  0.00  0.00    +0.155 HD
ENDROOT
BRANCH   3   5
ATOM      5  C   UNL     1       8.317   4.320   1.129  0.00  0.00    +0.035 A 
ATOM      6  C   UNL     1       9.606   4.381   1.643  0.00  0.00    +0.023 A 
ATOM      7  C   UNL     1      10.178   5.606   1.925  0.00  0.00    +0.004 A 
ATOM      8  C   UNL     1       9.469   6.771   1.697  0.00  0.00    +0.028 A 
ATOM      9  C   UNL     1       8.185   6.714   1.185  0.00  0.00    +0.107 A 
ATOM     10  C   UNL     1       7.609   5.492   0.896  0.00  0.00    +0.051 A 
BRANCH   9  11
ATOM     11  S   UNL     1       7.286   8.201   0.896  0.00  0.00    +0.056 S 
ATOM     12  O   UNL     1       5.908   7.855   0.926  0.00  0.00    -0.153 OA
ATOM     13  O   UNL     1       7.844   9.186   1.754  0.00  0.00    -0.153 OA
BRANCH  11  14
ATOM     14  N   UNL     1       7.619   8.681  -0.654  0.00  0.00    -0.204 NA
ATOM     15  H   UNL     1       6.956   9.174  -1.162  0.00  0.00    +0.144 HD
ATOM     16  H   UNL     1       8.477   8.468  -1.054  0.00  0.00    +0.144 HD
ENDBRANCH  11  14
ENDBRANCH   9  11
ENDBRANCH   3   5
BRANCH   1  17
ATOM     17  C   UNL     1       5.761   1.615   0.569  0.00  0.00    +0.020 C 
BRANCH  17  26
ATOM     18  C   UNL     1       3.692   2.716  -0.036  0.00  0.00    -0.036 C 
ATOM     19  C   UNL     1       2.198   2.763   0.272  0.00  0.00    -0.051 A 
ATOM     20  C   UNL     1       1.248   3.333  -0.572  0.00  0.00    +0.010 A 
ATOM     21  C   UNL     1      -0.059   3.328  -0.221  0.00  0.00    +0.045 A 
ATOM     22  S   UNL     1      -0.013   2.497   1.361  0.00  0.00    -0.101 S 
ATOM     23  C   UNL     1       1.734   2.222   1.433  0.00  0.00    -0.010 A 
ATOM     24  C   UNL     1       2.547   1.559   2.497  0.00  0.00    +0.024 C 
ATOM     25  C   UNL     1       4.025   1.897   2.235  0.00  0.00    -0.072 C 
ATOM     26  N   UNL     1       4.303   1.655   0.799  0.00  0.00    +0.390 N 
ATOM     27  H   UNL     1       3.899   0.750   0.531  0.00  0.00    -0.080 HD
BRANCH  18  29
ATOM     28  C   UNL     1       3.329   0.979  -1.795  0.00  0.00    +0.002 C 
ATOM     29  C   UNL     1       3.901   2.370  -1.511  0.00  0.00    -0.014 C 
ENDBRANCH  18  29
ENDBRANCH  17  26
ENDBRANCH   1  17
TORSDOF 6
