REMARK  Name = ZINC20986010
REMARK  4 active torsions:
REMARK  status: ('A' for Active; 'I' for Inactive)
REMARK    1  A    between atoms: C_1  and  C_2
REMARK    2  A    between atoms: C_2  and  C_15
REMARK    3  A    between atoms: N_3  and  N_4
REMARK    4  A    between atoms: C_24  and  O_25
REMARK                            x       y       z     vdW  Elec       q    Type
REMARK                         _______ _______ _______ _____ _____    ______ ____
ROOT
ATOM      1  C   UNL     1       0.092   1.508   0.009  0.00  0.00    +0.068 C 
ATOM      2  C   UNL     1      -0.006   0.004   0.008  0.00  0.00    +0.067 C 
ATOM      3  N   UNL     1      -0.055  -0.644   1.132  0.00  0.00    -0.185 NA
ENDROOT
BRANCH   3   4
ATOM      4  N   UNL     1      -0.228  -2.034   1.132  0.00  0.00    -0.221 N 
ATOM      5  C   UNL     1      -0.395  -2.712   2.330  0.00  0.00    +0.139 A 
ATOM      6  C   UNL     1      -0.561  -4.105   2.312  0.00  0.00    +0.046 A 
ATOM      7  C   UNL     1      -0.726  -4.784   3.481  0.00  0.00    +0.013 A 
ATOM      8  C   UNL     1      -0.723  -4.051   4.686  0.00  0.00    +0.001 A 
ATOM      9  C   UNL     1      -0.887  -4.688   5.925  0.00  0.00    +0.010 A 
ATOM     10  C   UNL     1      -0.879  -3.948   7.069  0.00  0.00    +0.001 A 
ATOM     11  C   UNL     1      -0.710  -2.566   7.024  0.00  0.00    +0.002 A 
ATOM     12  C   UNL     1      -0.549  -1.916   5.839  0.00  0.00    +0.028 A 
ATOM     13  C   UNL     1      -0.551  -2.646   4.638  0.00  0.00    +0.073 A 
ATOM     14  N   UNL     1      -0.389  -2.033   3.460  0.00  0.00    -0.231 NA
ATOM     15  H   UNL     1      -0.231  -2.523   0.294  0.00  0.00    +0.176 HD
ENDBRANCH   3   4
BRANCH   2  16
ATOM     16  C   UNL     1      -0.045  -0.731  -1.268  0.00  0.00    +0.039 A 
ATOM     17  C   UNL     1      -1.204  -1.441  -1.630  0.00  0.00    +0.014 A 
ATOM     18  C   UNL     1      -1.265  -2.126  -2.800  0.00  0.00    +0.009 A 
ATOM     19  C   UNL     1      -0.161  -2.134  -3.673  0.00  0.00    -0.014 A 
ATOM     20  C   UNL     1      -0.205  -2.837  -4.889  0.00  0.00    +0.008 A 
ATOM     21  C   UNL     1       0.878  -2.827  -5.714  0.00  0.00    +0.001 A 
ATOM     22  C   UNL     1       2.035  -2.129  -5.372  0.00  0.00    +0.001 A 
ATOM     23  C   UNL     1       2.114  -1.437  -4.202  0.00  0.00    +0.012 A 
ATOM     24  C   UNL     1       1.016  -1.424  -3.325  0.00  0.00    +0.024 A 
ATOM     25  C   UNL     1       1.062  -0.713  -2.111  0.00  0.00    +0.133 A 
BRANCH  25  26
ATOM     26  O   UNL     1       2.178  -0.023  -1.763  0.00  0.00    -0.506 OA
ATOM     27  H   UNL     1       2.784  -0.516  -1.195  0.00  0.00    +0.292 HD
ENDBRANCH  25  26
ENDBRANCH   2  16
TORSDOF 3
