REMARK  Name = ZINC17097325
REMARK  11 active torsions:
REMARK  status: ('A' for Active; 'I' for Inactive)
REMARK    1  A    between atoms: C_1  and  C_2
REMARK    2  A    between atoms: C_6  and  O_8
REMARK    3  A    between atoms: O_8  and  C_9
REMARK    4  A    between atoms: C_9  and  C_11
REMARK    5  A    between atoms: C_9  and  C_12
REMARK    6  A    between atoms: N_14  and  C_15
REMARK    7  A    between atoms: C_16  and  C_29
REMARK    8  A    between atoms: C_21  and  C_25
REMARK    9  A    between atoms: C_25  and  C_26
REMARK   10  A    between atoms: C_25  and  C_27
REMARK   11  A    between atoms: C_25  and  C_28
REMARK                            x       y       z     vdW  Elec       q    Type
REMARK                         _______ _______ _______ _____ _____    ______ ____
ROOT
ATOM      1  C   UNL     1      -2.356  -0.398   0.267  0.00  0.00    +0.258 C 
ATOM      2  O   UNL     1      -2.577   0.781   0.443  0.00  0.00    -0.271 OA
ATOM      3  N   UNL     1      -1.089  -0.858   0.290  0.00  0.00    -0.276 N 
ATOM      4  H   UNL     1      -0.913  -1.801   0.149  0.00  0.00    +0.155 HD
ENDROOT
BRANCH   3   5
ATOM      5  C   UNL     1      -0.037   0.019   0.516  0.00  0.00    +0.090 A 
ATOM      6  C   UNL     1       1.320  -0.261   0.576  0.00  0.00    +0.084 A 
ATOM      7  C   UNL     1       2.224   0.848   0.828  0.00  0.00    -0.018 A 
ATOM      8  C   UNL     1       1.630   2.052   0.979  0.00  0.00    -0.004 A 
ATOM      9  S   UNL     1      -0.101   1.728   0.791  0.00  0.00    -0.077 S 
ATOM     10  C   UNL     1       2.301   3.363   1.248  0.00  0.00    +0.047 C 
ATOM     11  C   UNL     1       3.743   3.085   1.700  0.00  0.00    -0.000 C 
ATOM     12  C   UNL     1       4.377   2.080   0.734  0.00  0.00    +0.009 C 
ATOM     13  C   UNL     1       3.738   0.703   0.922  0.00  0.00    +0.037 C 
BRANCH  11  14
ATOM     14  C   UNL     1       4.545   4.387   1.685  0.00  0.00    -0.035 C 
ATOM     15  C   UNL     1       4.544   4.971   0.271  0.00  0.00    +0.011 C 
ATOM     16  C   UNL     1       3.909   5.389   2.651  0.00  0.00    +0.011 C 
ATOM     17  C   UNL     1       5.985   4.104   2.118  0.00  0.00    +0.011 C 
ENDBRANCH  11  14
BRANCH   6  18
ATOM     18  C   UNL     1       1.812  -1.593   0.396  0.00  0.00    +0.102 C 
ATOM     19  N   UNL     1       2.202  -2.651   0.253  0.00  0.00    -0.191 NA
ENDBRANCH   6  18
ENDBRANCH   3   5
BRANCH   1  20
ATOM     20  C   UNL     1      -3.498  -1.351   0.022  0.00  0.00    +0.256 C 
ATOM     21  C   UNL     1      -3.590  -2.345   1.181  0.00  0.00    +0.062 C 
BRANCH  20  22
ATOM     22  O   UNL     1      -4.720  -0.615  -0.071  0.00  0.00    -0.478 OA
BRANCH  22  28
ATOM     23  C   UNL     1      -6.475  -4.455  -2.520  0.00  0.00    +0.044 C 
ATOM     24  C   UNL     1      -6.623  -3.053  -1.987  0.00  0.00    -0.047 A 
ATOM     25  C   UNL     1      -7.790  -2.347  -2.217  0.00  0.00    +0.005 A 
ATOM     26  C   UNL     1      -7.929  -1.061  -1.729  0.00  0.00    +0.024 A 
ATOM     27  C   UNL     1      -6.903  -0.478  -1.010  0.00  0.00    +0.083 A 
ATOM     28  C   UNL     1      -5.731  -1.185  -0.778  0.00  0.00    +0.140 A 
ATOM     29  C   UNL     1      -5.592  -2.473  -1.274  0.00  0.00    +0.050 A 
ATOM     30 CL   UNL     1      -7.078   1.137  -0.398  0.00  0.00    -0.080 Cl
ENDBRANCH  22  28
ENDBRANCH  20  22
ENDBRANCH   1  20
TORSDOF 6
