REMARK  Name = ZINC64691495
REMARK  8 active torsions:
REMARK  status: ('A' for Active; 'I' for Inactive)
REMARK    1  A    between atoms: C_4  and  C_7
REMARK    2  A    between atoms: C_7  and  C_9
REMARK    3  A    between atoms: C_7  and  N_22
REMARK    4  A    between atoms: N_11  and  C_12
REMARK    5  A    between atoms: C_15  and  N_19
REMARK    6  A    between atoms: N_22  and  C_23
REMARK    7  A    between atoms: C_23  and  C_24
REMARK    8  A    between atoms: C_24  and  C_25
REMARK                            x       y       z     vdW  Elec       q    Type
REMARK                         _______ _______ _______ _____ _____    ______ ____
ROOT
ATOM      1  C   UNL     1       3.694  -0.709  -0.041  0.00  0.00    +0.047 C 
ENDROOT
BRANCH   1   5
ATOM      2  C   UNL     1      -0.038   1.369  -0.021  0.00  0.00    +0.000 A 
ATOM      3  C   UNL     1       1.148   2.078  -0.019  0.00  0.00    +0.000 A 
ATOM      4  C   UNL     1       2.356   1.406  -0.025  0.00  0.00    +0.002 A 
ATOM      5  C   UNL     1       2.377   0.024  -0.033  0.00  0.00    -0.053 A 
ATOM      6  C   UNL     1       1.191  -0.686  -0.034  0.00  0.00    +0.002 A 
ATOM      7  C   UNL     1      -0.017  -0.013  -0.029  0.00  0.00    +0.000 A 
ENDBRANCH   1   5
BRANCH   1   8
ATOM      8  C   UNL     1       4.009  -1.161  -1.444  0.00  0.00    +0.207 C 
ATOM      9  O   UNL     1       4.148  -2.342  -1.683  0.00  0.00    -0.277 OA
ATOM     10  N   UNL     1       4.136  -0.254  -2.432  0.00  0.00    -0.286 N 
ATOM     11  H   UNL     1       3.960   0.684  -2.255  0.00  0.00    +0.155 HD
BRANCH  10  12
ATOM     12  C   UNL     1       4.520  -0.664  -3.714  0.00  0.00    +0.048 A 
ATOM     13  C   UNL     1       4.103  -1.894  -4.205  0.00  0.00    +0.026 A 
ATOM     14  C   UNL     1       4.484  -2.296  -5.470  0.00  0.00    +0.034 A 
ATOM     15  C   UNL     1       5.280  -1.475  -6.248  0.00  0.00    +0.127 A 
ATOM     16  C   UNL     1       5.697  -0.249  -5.763  0.00  0.00    +0.049 A 
ATOM     17  C   UNL     1       5.314   0.162  -4.500  0.00  0.00    +0.041 A 
ATOM     18 BR   UNL     1       5.878   1.841  -3.839  0.00  0.00    -0.048 Br
BRANCH  15  19
ATOM     19  N   UNL     1       5.687  -1.910  -7.603  0.00  0.00    +0.056 N 
ATOM     20  O   UNL     1       5.324  -2.981  -8.029  0.00  0.00    -0.126 OA
ATOM     21  O   UNL     1       6.383  -1.193  -8.284  0.00  0.00    -0.126 OA
ENDBRANCH  15  19
ENDBRANCH  10  12
ENDBRANCH   1   8
BRANCH   1  22
ATOM     22  N   UNL     1       3.608  -1.879   0.843  0.00  0.00    +0.390 N 
ATOM     23  H   UNL     1       2.826  -2.454   0.566  0.00  0.00    -0.084 HD
ATOM     24  H   UNL     1       4.460  -2.416   0.775  0.00  0.00    -0.084 HD
BRANCH  22  25
ATOM     25  C   UNL     1       3.421  -1.433   2.230  0.00  0.00    -0.077 C 
BRANCH  25  26
ATOM     26  C   UNL     1       3.332  -2.651   3.151  0.00  0.00    +0.014 C 
BRANCH  26  27
ATOM     27  C   UNL     1       3.139  -2.193   4.573  0.00  0.00    -0.043 C 
ATOM     28  C   UNL     1       1.966  -2.066   5.235  0.00  0.00    -0.001 A 
ATOM     29  C   UNL     1       0.572  -2.305   4.843  0.00  0.00    +0.010 A 
ATOM     30  C   UNL     1      -0.411  -2.082   5.745  0.00  0.00    +0.001 A 
ATOM     31  C   UNL     1      -0.132  -1.629   7.041  0.00  0.00    +0.002 A 
ATOM     32  C   UNL     1       1.123  -1.386   7.475  0.00  0.00    +0.026 A 
ATOM     33  C   UNL     1       2.234  -1.587   6.610  0.00  0.00    +0.043 A 
ATOM     34  N   UNL     1       3.522  -1.425   6.791  0.00  0.00    -0.380 N 
ATOM     35  C   UNL     1       4.218  -1.789   5.552  0.00  0.00    +0.144 C 
ATOM     36  H   UNL     1       3.945  -1.120   7.609  0.00  0.00    +0.160 HD
ENDBRANCH  26  27
ENDBRANCH  25  26
ENDBRANCH  22  25
ENDBRANCH   1  22
TORSDOF 8
