REMARK  Name = ZINC35566773
REMARK  6 active torsions:
REMARK  status: ('A' for Active; 'I' for Inactive)
REMARK    1  A    between atoms: C_1  and  C_2
REMARK    2  A    between atoms: C_2  and  C_4
REMARK    3  A    between atoms: C_4  and  O_28
REMARK    4  A    between atoms: C_9  and  C_27
REMARK    5  A    between atoms: O_28  and  C_29
REMARK    6  A    between atoms: C_29  and  C_31
REMARK                            x       y       z     vdW  Elec       q    Type
REMARK                         _______ _______ _______ _____ _____    ______ ____
ROOT
ATOM      1  C   UNL     1       0.161  -0.962  -1.080  0.00  0.00    +0.176 C 
ATOM      2  C   UNL     1       1.476  -1.594  -1.573  0.00  0.00    +0.057 C 
ATOM      3  C   UNL     1       1.225  -3.117  -1.671  0.00  0.00    +0.009 C 
ATOM      4  C   UNL     1       0.050  -3.346  -0.703  0.00  0.00    +0.003 C 
ATOM      5  C   UNL     1      -0.858  -2.127  -0.947  0.00  0.00    +0.018 C 
ATOM      6  C   UNL     1      -1.577  -2.227  -2.293  0.00  0.00    +0.011 C 
ATOM      7  C   UNL     1      -2.294  -3.567  -2.446  0.00  0.00    +0.005 C 
ATOM      8  C   UNL     1      -1.244  -4.677  -2.363  0.00  0.00    +0.000 C 
ATOM      9  C   UNL     1      -0.667  -4.657  -0.965  0.00  0.00    +0.001 C 
ATOM     10  C   UNL     1      -1.795  -4.819   0.061  0.00  0.00    +0.039 C 
ATOM     11  C   UNL     1      -2.614  -6.037  -0.264  0.00  0.00    -0.051 C 
ATOM     12  C   UNL     1      -3.122  -6.779   0.724  0.00  0.00    +0.012 C 
ATOM     13  C   UNL     1      -2.858  -6.415  -1.656  0.00  0.00    -0.038 C 
ATOM     14  C   UNL     1      -3.958  -7.144  -1.961  0.00  0.00    +0.050 C 
ATOM     15  C   UNL     1      -4.230  -7.560  -3.274  0.00  0.00    +0.156 C 
ATOM     16  O   UNL     1      -5.235  -8.201  -3.509  0.00  0.00    -0.293 OA
ATOM     17  C   UNL     1      -3.280  -7.215  -4.392  0.00  0.00    +0.079 C 
ATOM     18  C   UNL     1      -2.600  -5.883  -4.070  0.00  0.00    +0.016 C 
ATOM     19  C   UNL     1      -1.858  -6.033  -2.685  0.00  0.00    +0.023 C 
ATOM     20  C   UNL     1      -1.827  -1.903   0.215  0.00  0.00    +0.016 C 
ENDROOT
BRANCH   1  22
ATOM     21  C   UNL     1      -0.441   0.905   0.642  0.00  0.00    +0.090 C 
ATOM     22  C   UNL     1       0.372  -0.304   0.260  0.00  0.00    +0.174 C 
ATOM     23  O   UNL     1       1.194  -0.747   1.026  0.00  0.00    -0.293 OA
ENDBRANCH   1  22
BRANCH   1  24
ATOM     24  O   UNL     1      -0.310  -0.003  -2.028  0.00  0.00    -0.450 OA
BRANCH  24  25
ATOM     25  C   UNL     1       0.495   1.038  -2.294  0.00  0.00    +0.305 C 
ATOM     26  O   UNL     1       1.594   1.093  -1.796  0.00  0.00    -0.251 OA
ATOM     27  C   UNL     1       0.028   2.136  -3.214  0.00  0.00    +0.136 C 
ENDBRANCH  24  25
ENDBRANCH   1  24
TORSDOF 3
