REMARK  Name = ZINC54945905
REMARK  9 active torsions:
REMARK  status: ('A' for Active; 'I' for Inactive)
REMARK    1  A    between atoms: C_1  and  C_2
REMARK    2  A    between atoms: C_5  and  C_30
REMARK    3  A    between atoms: N_8  and  C_10
REMARK    4  A    between atoms: C_10  and  C_11
REMARK    5  A    between atoms: C_10  and  C_12
REMARK    6  A    between atoms: C_10  and  C_13
REMARK    7  A    between atoms: C_13  and  N_14
REMARK    8  A    between atoms: C_15  and  C_17
REMARK    9  A    between atoms: N_19  and  C_20
REMARK                            x       y       z     vdW  Elec       q    Type
REMARK                         _______ _______ _______ _____ _____    ______ ____
ROOT
ATOM      1  N   UNL     1       1.817   1.646   3.358  0.00  0.00    -0.309 N 
ATOM      2  C   UNL     1       1.431   2.451   4.368  0.00  0.00    +0.299 C 
ATOM      3  O   UNL     1       1.189   1.981   5.460  0.00  0.00    -0.265 OA
ATOM      4  H   UNL     1       2.010   2.021   2.485  0.00  0.00    +0.149 HD
ENDROOT
BRANCH   2   5
ATOM      5  C   UNL     1       1.301   3.921   4.142  0.00  0.00    +0.303 C 
ATOM      6  O   UNL     1       1.543   4.391   3.050  0.00  0.00    -0.265 OA
ATOM      7  N   UNL     1       0.915   4.726   5.152  0.00  0.00    -0.277 N 
ATOM      8  H   UNL     1       0.659   4.345   6.006  0.00  0.00    +0.155 HD
BRANCH   7   9
ATOM      9  C   UNL     1       0.885   6.107   4.969  0.00  0.00    +0.043 A 
ATOM     10  C   UNL     1       0.626   6.639   3.722  0.00  0.00    +0.024 A 
ATOM     11  C   UNL     1       0.593   8.016   3.533  0.00  0.00    +0.004 A 
ATOM     12  C   UNL     1       0.816   8.876   4.566  0.00  0.00    +0.028 A 
ATOM     13  C   UNL     1       1.083   8.376   5.851  0.00  0.00    +0.073 A 
ATOM     14  C   UNL     1       1.113   6.975   6.057  0.00  0.00    +0.022 A 
ATOM     15  C   UNL     1       1.375   6.479   7.345  0.00  0.00    +0.013 A 
ATOM     16  C   UNL     1       1.587   7.379   8.352  0.00  0.00    +0.020 A 
ATOM     17  C   UNL     1       1.538   8.745   8.085  0.00  0.00    +0.111 A 
ATOM     18  N   UNL     1       1.304   9.203   6.879  0.00  0.00    -0.255 NA
ENDBRANCH   7   9
ENDBRANCH   2   5
BRANCH   1  19
ATOM     19  C   UNL     1       1.944   0.203   3.579  0.00  0.00    +0.092 C 
BRANCH  19  20
ATOM     20  C   UNL     1       2.489  -0.461   2.313  0.00  0.00    -0.055 C 
ATOM     21  C   UNL     1       2.548  -1.976   2.517  0.00  0.00    -0.008 C 
ATOM     22  C   UNL     1       3.895   0.070   2.025  0.00  0.00    -0.008 C 
BRANCH  20  28
ATOM     23  C   UNL     1      -0.689   1.307   0.173  0.00  0.00    +0.005 C 
ATOM     24  C   UNL     1      -0.695  -0.214   0.343  0.00  0.00    -0.031 C 
ATOM     25  C   UNL     1      -0.216  -0.874  -0.953  0.00  0.00    +0.003 C 
ATOM     26  C   UNL     1       1.232  -0.455  -1.223  0.00  0.00    -0.031 C 
ATOM     27  C   UNL     1       2.100  -0.837  -0.022  0.00  0.00    -0.075 C 
ATOM     28  N   UNL     1       1.607  -0.153   1.180  0.00  0.00    +0.384 N 
ATOM     29  C   UNL     1       0.243  -0.604   1.486  0.00  0.00    -0.075 C 
ATOM     30  C   UNL     1       1.747  -1.170  -2.474  0.00  0.00    +0.005 C 
ATOM     31  H   UNL     1       1.603   0.843   1.021  0.00  0.00    -0.081 HD
ENDBRANCH  20  28
ENDBRANCH  19  20
ENDBRANCH   1  19
TORSDOF 5
