REMARK  Name = ZINC58245177
REMARK  6 active torsions:
REMARK  status: ('A' for Active; 'I' for Inactive)
REMARK    1  A    between atoms: C_1  and  C_2
REMARK    2  A    between atoms: C_2  and  C_4
REMARK    3  A    between atoms: C_2  and  N_12
REMARK    4  A    between atoms: N_15  and  C_16
REMARK    5  A    between atoms: C_16  and  C_17
REMARK    6  A    between atoms: N_21  and  C_28
REMARK                            x       y       z     vdW  Elec       q    Type
REMARK                         _______ _______ _______ _____ _____    ______ ____
ROOT
ATOM      1  N   UNL     1       0.673  -0.888  -1.222  0.00  0.00    -0.288 N 
ATOM      2  C   UNL     1      -0.030  -0.894  -2.372  0.00  0.00    +0.300 C 
ATOM      3  O   UNL     1      -1.244  -0.832  -2.343  0.00  0.00    -0.253 OA
ATOM      4  N   UNL     1       0.613  -0.968  -3.555  0.00  0.00    -0.299 N 
ATOM      5  H   UNL     1       1.641  -0.937  -1.246  0.00  0.00    +0.151 HD
ATOM      6  H   UNL     1       1.581  -1.017  -3.578  0.00  0.00    +0.150 HD
ENDROOT
BRANCH   1   8
ATOM      7  C   UNL     1      -0.308   0.658   0.399  0.00  0.00    +0.038 C 
ATOM      8  C   UNL     1      -0.026  -0.807   0.063  0.00  0.00    +0.157 C 
BRANCH   8   9
ATOM      9  C   UNL     1       0.835  -1.413   1.141  0.00  0.00    +0.236 C 
ATOM     10  O   UNL     1       2.023  -1.570   0.952  0.00  0.00    -0.274 OA
ATOM     11  N   UNL     1       0.285  -1.781   2.315  0.00  0.00    -0.300 N 
ATOM     12  C   UNL     1      -1.168  -1.706   2.517  0.00  0.00    +0.108 C 
ATOM     13  C   UNL     1      -1.672  -3.073   2.991  0.00  0.00    +0.019 C 
ATOM     14  C   UNL     1      -0.886  -3.498   4.234  0.00  0.00    +0.003 C 
ATOM     15  C   UNL     1       0.598  -3.626   3.882  0.00  0.00    +0.019 C 
ATOM     16  C   UNL     1       1.127  -2.271   3.416  0.00  0.00    +0.108 C 
ENDBRANCH   8   9
ENDBRANCH   1   8
BRANCH   4  17
ATOM     17  C   UNL     1      -0.152  -0.974  -4.805  0.00  0.00    +0.114 C 
BRANCH  17  18
ATOM     18  C   UNL     1       0.799  -1.195  -5.983  0.00  0.00    +0.039 C 
ATOM     19  C   UNL     1       1.461  -2.566  -5.846  0.00  0.00    +0.028 C 
ATOM     20  C   UNL     1       2.245  -2.868  -7.130  0.00  0.00    +0.105 C 
ATOM     21  N   UNL     1       1.282  -2.940  -8.238  0.00  0.00    -0.333 N 
ATOM     22  C   UNL     1       0.285  -1.963  -8.332  0.00  0.00    +0.033 A 
ATOM     23  C   UNL     1       0.023  -1.111  -7.271  0.00  0.00    -0.022 A 
ATOM     24  C   UNL     1      -0.973  -0.156  -7.391  0.00  0.00    +0.006 A 
ATOM     25  C   UNL     1      -1.700  -0.052  -8.561  0.00  0.00    +0.000 A 
ATOM     26  C   UNL     1      -1.438  -0.900  -9.621  0.00  0.00    +0.002 A 
ATOM     27  C   UNL     1      -0.447  -1.854  -9.509  0.00  0.00    +0.023 A 
ATOM     28  C   UNL     1       1.364  -4.018  -9.227  0.00  0.00    +0.129 C 
ENDBRANCH  17  18
ENDBRANCH   4  17
TORSDOF 4
