REMARK  Name = ZINC20898613
REMARK  8 active torsions:
REMARK  status: ('A' for Active; 'I' for Inactive)
REMARK    1  A    between atoms: C_1  and  C_2
REMARK    2  A    between atoms: C_5  and  C_9
REMARK    3  A    between atoms: C_6  and  O_8
REMARK    4  A    between atoms: C_14  and  C_23
REMARK    5  A    between atoms: C_26  and  O_29
REMARK    6  A    between atoms: O_29  and  C_30
REMARK    7  A    between atoms: N_33  and  C_38
REMARK    8  A    between atoms: N_36  and  C_37
REMARK                            x       y       z     vdW  Elec       q    Type
REMARK                         _______ _______ _______ _____ _____    ______ ____
ROOT
ATOM      1  C   UNL     1      -3.485  -3.427  -1.249  0.00  0.00    +0.154 C 
ATOM      2  C   UNL     1      -2.990  -2.270  -0.408  0.00  0.00    +0.073 A 
ATOM      3  C   UNL     1      -3.603  -1.621   0.570  0.00  0.00    +0.082 A 
ATOM      4  C   UNL     1      -2.644  -0.603   1.070  0.00  0.00    +0.089 A 
ATOM      5  C   UNL     1      -1.507  -0.731   0.310  0.00  0.00    +0.069 A 
ATOM      6  N   UNL     1      -1.723  -1.730  -0.586  0.00  0.00    -0.306 N 
ATOM      7  C   UNL     1      -0.857  -2.222  -1.574  0.00  0.00    +0.068 A 
ATOM      8  C   UNL     1       0.474  -1.854  -1.621  0.00  0.00    +0.028 A 
ATOM      9  C   UNL     1       1.296  -2.374  -2.605  0.00  0.00    +0.002 A 
ATOM     10  C   UNL     1       0.787  -3.255  -3.541  0.00  0.00    +0.002 A 
ATOM     11  C   UNL     1      -0.547  -3.615  -3.510  0.00  0.00    +0.025 A 
ATOM     12  C   UNL     1      -1.382  -3.093  -2.534  0.00  0.00    +0.052 A 
ATOM     13  N   UNL     1      -2.745  -3.410  -2.521  0.00  0.00    -0.330 N 
ATOM     14  C   UNL     1      -3.042   0.274   2.175  0.00  0.00    +0.266 A 
ATOM     15  O   UNL     1      -2.301   1.126   2.628  0.00  0.00    -0.267 OA
ATOM     16  N   UNL     1      -4.294   0.070   2.658  0.00  0.00    -0.263 N 
ATOM     17  C   UNL     1      -5.133  -0.856   2.184  0.00  0.00    +0.332 A 
ATOM     18  O   UNL     1      -6.229  -0.934   2.706  0.00  0.00    -0.246 OA
ATOM     19  N   UNL     1      -4.869  -1.708   1.169  0.00  0.00    -0.294 N 
ATOM     20  C   UNL     1      -5.857  -2.693   0.723  0.00  0.00    +0.154 C 
ATOM     21  C   UNL     1      -4.753   0.915   3.763  0.00  0.00    +0.157 C 
ATOM     22  H   UNL     1      -3.263  -3.646  -3.462  0.00  0.00    +0.147 HD
ENDROOT
BRANCH   1  27
ATOM     23  C   UNL     1      -2.509  -8.410   1.517  0.00  0.00    +0.044 C 
ATOM     24  C   UNL     1      -2.765  -7.113   0.794  0.00  0.00    -0.047 A 
ATOM     25  C   UNL     1      -2.142  -5.952   1.216  0.00  0.00    +0.004 A 
ATOM     26  C   UNL     1      -2.375  -4.761   0.554  0.00  0.00    +0.010 A 
ATOM     27  C   UNL     1      -3.231  -4.726  -0.529  0.00  0.00    +0.020 A 
ATOM     28  C   UNL     1      -3.862  -5.888  -0.951  0.00  0.00    +0.122 A 
ATOM     29  C   UNL     1      -3.623  -7.084  -0.288  0.00  0.00    +0.049 A 
BRANCH  28  30
ATOM     30  O   UNL     1      -4.709  -5.856  -2.013  0.00  0.00    -0.506 OA
ATOM     31  H   UNL     1      -5.208  -6.778  -2.346  0.00  0.00    +0.292 HD
ENDBRANCH  28  30
ENDBRANCH   1  27
BRANCH   5  32
ATOM     32  C   UNL     1      -0.274   0.067   0.446  0.00  0.00    -0.000 A 
ATOM     33  C   UNL     1       0.409   0.101   1.665  0.00  0.00    +0.013 A 
ATOM     34  C   UNL     1       1.561   0.847   1.787  0.00  0.00    +0.046 A 
ATOM     35  C   UNL     1       2.044   1.565   0.701  0.00  0.00    +0.120 A 
ATOM     36  C   UNL     1       1.369   1.535  -0.513  0.00  0.00    +0.046 A 
ATOM     37  C   UNL     1       0.216   0.791  -0.644  0.00  0.00    +0.013 A 
BRANCH  35  38
ATOM     38  O   UNL     1       3.180   2.299   0.826  0.00  0.00    -0.495 OA
ATOM     39  C   UNL     1       3.824   2.286   2.101  0.00  0.00    +0.277 C 
ENDBRANCH  35  38
ENDBRANCH   5  32
TORSDOF 4
