REMARK  Name = ZINC61577679
REMARK  3 active torsions:
REMARK  status: ('A' for Active; 'I' for Inactive)
REMARK    1  A    between atoms: C_4  and  C_7
REMARK    2  A    between atoms: C_10  and  N_13
REMARK    3  A    between atoms: N_13  and  C_14
REMARK                            x       y       z     vdW  Elec       q    Type
REMARK                         _______ _______ _______ _____ _____    ______ ____
ROOT
ATOM      1  C   UNL     1       3.698  -0.688  -0.038  0.00  0.00    +0.160 A 
ATOM      2  N   UNL     1       4.825   0.010  -0.041  0.00  0.00    -0.234 NA
ATOM      3  C   UNL     1       5.998  -0.598  -0.056  0.00  0.00    +0.137 A 
ATOM      4  C   UNL     1       6.039  -1.991  -0.069  0.00  0.00    +0.064 A 
ATOM      5  C   UNL     1       4.834  -2.690  -0.066  0.00  0.00    +0.137 A 
ATOM      6  N   UNL     1       3.699  -2.014  -0.046  0.00  0.00    -0.234 NA
ENDROOT
BRANCH   1  10
ATOM      7  C   UNL     1      -0.017   1.379   0.010  0.00  0.00    +0.000 A 
ATOM      8  C   UNL     1       1.169   2.092   0.002  0.00  0.00    +0.001 A 
ATOM      9  C   UNL     1       2.377   1.427  -0.013  0.00  0.00    +0.011 A 
ATOM     10  C   UNL     1       2.402   0.033  -0.021  0.00  0.00    +0.019 A 
ATOM     11  C   UNL     1       1.205  -0.680  -0.013  0.00  0.00    +0.011 A 
ATOM     12  C   UNL     1       0.002  -0.004   0.002  0.00  0.00    +0.001 A 
ENDBRANCH   1  10
BRANCH   4  13
ATOM     13  N   UNL     1       7.260  -2.670  -0.085  0.00  0.00    -0.338 N 
ATOM     14  H   UNL     1       8.092  -2.172  -0.087  0.00  0.00    +0.146 HD
BRANCH  13  15
ATOM     15  C   UNL     1       7.283  -4.135  -0.099  0.00  0.00    +0.080 C 
ATOM     16  C   UNL     1       8.588  -4.615  -0.726  0.00  0.00    +0.024 C 
ATOM     17  C   UNL     1       8.531  -6.112  -1.016  0.00  0.00    +0.012 C 
ATOM     18  C   UNL     1       8.585  -6.900   0.297  0.00  0.00    +0.069 C 
ATOM     19  S   UNL     1       7.123  -6.476   1.291  0.00  0.00    -0.159 S 
ATOM     20  C   UNL     1       7.172  -4.659   1.336  0.00  0.00    +0.091 C 
ENDBRANCH  13  15
ENDBRANCH   4  13
TORSDOF 3
