REMARK  Name = ZINC22064009
REMARK  10 active torsions:
REMARK  status: ('A' for Active; 'I' for Inactive)
REMARK    1  A    between atoms: C_1  and  C_2
REMARK    2  A    between atoms: C_2  and  C_3
REMARK    3  A    between atoms: C_2  and  C_4
REMARK    4  A    between atoms: C_4  and  C_6
REMARK    5  A    between atoms: C_4  and  N_14
REMARK    6  A    between atoms: C_9  and  O_12
REMARK    7  A    between atoms: O_12  and  C_13
REMARK    8  A    between atoms: C_15  and  C_17
REMARK    9  A    between atoms: C_17  and  N_18
REMARK   10  A    between atoms: C_21  and  C_24
REMARK                            x       y       z     vdW  Elec       q    Type
REMARK                         _______ _______ _______ _____ _____    ______ ____
ROOT
ATOM      1  C   UNL     1      -4.909   0.937   0.816  0.00  0.00    +0.019 C 
ENDROOT
BRANCH   1   2
ATOM      2  N   UNL     1      -5.771   1.776  -0.029  0.00  0.00    +0.385 N 
ATOM      3  C   UNL     1      -5.011   2.357  -1.143  0.00  0.00    -0.077 C 
ATOM      4  C   UNL     1      -5.900   3.335  -1.913  0.00  0.00    -0.006 C 
ATOM      5  C   UNL     1      -7.129   2.591  -2.443  0.00  0.00    +0.072 C 
ATOM      6  C   UNL     1      -7.876   1.954  -1.268  0.00  0.00    -0.006 C 
ATOM      7  C   UNL     1      -6.929   1.016  -0.516  0.00  0.00    -0.077 C 
ATOM      8  H   UNL     1      -6.148   2.604   0.588  0.00  0.00    -0.081 HD
BRANCH   5   9
ATOM      9  C   UNL     1      -8.039   3.561  -3.152  0.00  0.00    +0.219 C 
ATOM     10  O   UNL     1      -8.985   4.043  -2.567  0.00  0.00    -0.275 OA
ATOM     11  N   UNL     1      -7.800   3.893  -4.436  0.00  0.00    -0.301 N 
ATOM     12  C   UNL     1      -8.760   4.724  -5.127  0.00  0.00    +0.108 C 
ATOM     13  C   UNL     1      -9.833   3.841  -5.799  0.00  0.00    +0.019 C 
ATOM     14  C   UNL     1      -9.258   3.126  -6.949  0.00  0.00    +0.002 C 
ATOM     15  C   UNL     1      -8.138   2.155  -6.589  0.00  0.00    +0.002 C 
ATOM     16  C   UNL     1      -6.830   2.904  -6.520  0.00  0.00    +0.019 C 
ATOM     17  C   UNL     1      -6.572   3.388  -5.081  0.00  0.00    +0.108 C 
ENDBRANCH   5   9
ENDBRANCH   1   2
BRANCH   1  19
ATOM     18  N   UNL     1      -5.096  -0.297   2.951  0.00  0.00    -0.310 N 
ATOM     19  C   UNL     1      -5.651   0.561   2.072  0.00  0.00    +0.197 C 
ATOM     20  O   UNL     1      -6.748   1.029   2.293  0.00  0.00    -0.278 OA
ATOM     21  H   UNL     1      -4.101  -0.722   2.751  0.00  0.00    +0.149 HD
BRANCH  18  22
ATOM     22  C   UNL     1      -5.817  -0.664   4.173  0.00  0.00    +0.106 C 
BRANCH  22  23
ATOM     23  C   UNL     1      -5.341  -2.010   4.652  0.00  0.00    -0.027 A 
ATOM     24  C   UNL     1      -3.998  -2.333   4.582  0.00  0.00    +0.009 A 
ATOM     25  C   UNL     1      -3.558  -3.564   5.027  0.00  0.00    +0.046 A 
ATOM     26  C   UNL     1      -4.466  -4.483   5.533  0.00  0.00    +0.120 A 
ATOM     27  C   UNL     1      -5.814  -4.159   5.597  0.00  0.00    +0.046 A 
ATOM     28  C   UNL     1      -6.248  -2.924   5.157  0.00  0.00    +0.009 A 
BRANCH  26  29
ATOM     29  O   UNL     1      -4.037  -5.698   5.965  0.00  0.00    -0.495 OA
ATOM     30  C   UNL     1      -2.636  -5.962   5.869  0.00  0.00    +0.277 C 
ENDBRANCH  26  29
ENDBRANCH  22  23
BRANCH  22  32
ATOM     31  C   UNL     1      -6.307   0.003   6.530  0.00  0.00    +0.009 C 
ATOM     32  C   UNL     1      -5.553   0.386   5.255  0.00  0.00    +0.008 C 
ATOM     33  C   UNL     1      -6.037   1.753   4.767  0.00  0.00    +0.009 C 
ENDBRANCH  22  32
ENDBRANCH  18  22
ENDBRANCH   1  19
TORSDOF 7
