REMARK  Name = ZINC15183629
REMARK  10 active torsions:
REMARK  status: ('A' for Active; 'I' for Inactive)
REMARK    1  A    between atoms: C_4  and  C_7
REMARK    2  A    between atoms: C_7  and  O_8
REMARK    3  A    between atoms: O_8  and  C_9
REMARK    4  A    between atoms: N_11  and  C_12
REMARK    5  A    between atoms: C_12  and  C_14
REMARK    6  A    between atoms: C_12  and  C_25
REMARK    7  A    between atoms: C_14  and  C_15
REMARK    8  A    between atoms: N_27  and  C_28
REMARK    9  A    between atoms: C_28  and  C_29
REMARK   10  A    between atoms: C_29  and  C_30
REMARK                            x       y       z     vdW  Elec       q    Type
REMARK                         _______ _______ _______ _____ _____    ______ ____
ROOT
ATOM      1  C   UNL     1      -0.172   1.201   4.824  0.00  0.00    +0.166 C 
ENDROOT
BRANCH   1   4
ATOM      2  C   UNL     1      -0.165   1.193   2.387  0.00  0.00    +0.401 C 
ATOM      3  O   UNL     1       0.837   0.505   2.422  0.00  0.00    -0.226 OA
ATOM      4  N   UNL     1      -0.747   1.594   3.535  0.00  0.00    -0.269 N 
ATOM      5  H   UNL     1      -1.546   2.143   3.507  0.00  0.00    +0.153 HD
BRANCH   2   6
ATOM      6  O   UNL     1      -0.692   1.554   1.203  0.00  0.00    -0.446 OA
BRANCH   6   7
ATOM      7  C   UNL     1      -0.013   1.086   0.008  0.00  0.00    +0.269 C 
BRANCH   7  11
ATOM      8  C   UNL     1      -2.079   2.501  -3.453  0.00  0.00    +0.000 A 
ATOM      9  C   UNL     1      -1.066   3.259  -2.894  0.00  0.00    +0.000 A 
ATOM     10  C   UNL     1      -0.398   2.801  -1.774  0.00  0.00    +0.007 A 
ATOM     11  C   UNL     1      -0.742   1.585  -1.213  0.00  0.00    -0.010 A 
ATOM     12  C   UNL     1      -1.750   0.825  -1.775  0.00  0.00    +0.007 A 
ATOM     13  C   UNL     1      -2.422   1.285  -2.892  0.00  0.00    +0.000 A 
ENDBRANCH   7  11
ENDBRANCH   6   7
ENDBRANCH   2   6
ENDBRANCH   1   4
BRANCH   1  14
ATOM     14  C   UNL     1      -1.249   1.214   5.878  0.00  0.00    +0.234 C 
ATOM     15  O   UNL     1      -2.384   1.520   5.582  0.00  0.00    -0.274 OA
ATOM     16  N   UNL     1      -0.950   0.884   7.151  0.00  0.00    -0.313 N 
ATOM     17  H   UNL     1      -0.042   0.638   7.387  0.00  0.00    +0.149 HD
BRANCH  16  18
ATOM     18  C   UNL     1      -1.997   0.896   8.175  0.00  0.00    +0.109 C 
BRANCH  18  19
ATOM     19  C   UNL     1      -1.397   0.485   9.522  0.00  0.00    +0.054 C 
BRANCH  19  20
ATOM     20  C   UNL     1      -2.474   0.498  10.576  0.00  0.00    -0.043 A 
ATOM     21  C   UNL     1      -2.716   1.649  11.303  0.00  0.00    +0.004 A 
ATOM     22  C   UNL     1      -3.707   1.663  12.267  0.00  0.00    +0.003 A 
ATOM     23  C   UNL     1      -4.449   0.523  12.513  0.00  0.00    +0.038 A 
ATOM     24  C   UNL     1      -4.204  -0.631  11.789  0.00  0.00    +0.124 A 
ATOM     25  C   UNL     1      -3.215  -0.643  10.820  0.00  0.00    +0.042 A 
ATOM     26  F   UNL     1      -4.928  -1.746  12.029  0.00  0.00    -0.205 F 
ENDBRANCH  19  20
ENDBRANCH  18  19
ENDBRANCH  16  18
ENDBRANCH   1  14
BRANCH   1  27
ATOM     27  C   UNL     1       0.932   2.186   5.212  0.00  0.00    +0.069 C 
BRANCH  27  28
ATOM     28  C   UNL     1       2.065   2.085   4.223  0.00  0.00    -0.020 A 
ATOM     29  C   UNL     1       3.177   1.345   4.356  0.00  0.00    +0.087 A 
ATOM     30  N   UNL     1       3.977   1.503   3.257  0.00  0.00    -0.360 N 
ATOM     31  H   UNL     1       4.834   1.067   3.124  0.00  0.00    +0.165 HD
ATOM     32  C   UNL     1       3.388   2.377   2.371  0.00  0.00    +0.047 A 
ATOM     33  C   UNL     1       2.165   2.780   2.938  0.00  0.00    +0.003 A 
ATOM     34  C   UNL     1       1.342   3.676   2.253  0.00  0.00    +0.010 A 
ATOM     35  C   UNL     1       1.730   4.158   1.034  0.00  0.00    +0.001 A 
ATOM     36  C   UNL     1       2.936   3.764   0.472  0.00  0.00    +0.002 A 
ATOM     37  C   UNL     1       3.763   2.881   1.130  0.00  0.00    +0.026 A 
ENDBRANCH  27  28
ENDBRANCH   1  27
TORSDOF 10
