REMARK  Name = ZINC35834681
REMARK  11 active torsions:
REMARK  status: ('A' for Active; 'I' for Inactive)
REMARK    1  A    between atoms: C_1  and  C_2
REMARK    2  A    between atoms: N_8  and  C_9
REMARK    3  A    between atoms: C_9  and  C_10
REMARK    4  A    between atoms: C_10  and  C_11
REMARK    5  A    between atoms: C_11  and  N_12
REMARK    6  A    between atoms: C_18  and  C_27
REMARK    7  A    between atoms: N_23  and  C_24
REMARK    8  A    between atoms: C_24  and  C_25
REMARK    9  A    between atoms: C_31  and  O_33
REMARK   10  A    between atoms: O_33  and  C_34
REMARK   11  A    between atoms: C_34  and  C_35
REMARK                            x       y       z     vdW  Elec       q    Type
REMARK                         _______ _______ _______ _____ _____    ______ ____
ROOT
ATOM      1  N   UNL     1       0.983  -0.177   6.069  0.00  0.00    -0.292 N 
ATOM      2  C   UNL     1       0.805  -1.398   6.868  0.00  0.00    +0.159 C 
ATOM      3  C   UNL     1       1.850  -1.305   7.957  0.00  0.00    +0.043 C 
ATOM      4  C   UNL     1       2.511  -0.148   7.751  0.00  0.00    +0.058 C 
ATOM      5  C   UNL     1       1.994   0.518   6.621  0.00  0.00    +0.247 C 
ATOM      6  O   UNL     1       2.406   1.584   6.202  0.00  0.00    -0.270 OA
ATOM      7  C   UNL     1       3.630   0.206   8.711  0.00  0.00    +0.142 C 
ATOM      8  N   UNL     1       3.903  -0.750   9.797  0.00  0.00    -0.288 N 
ATOM      9  C   UNL     1       3.153  -1.868   9.873  0.00  0.00    +0.307 C 
ATOM     10  O   UNL     1       3.371  -2.663  10.766  0.00  0.00    -0.252 OA
ATOM     11  N   UNL     1       2.175  -2.130   8.996  0.00  0.00    -0.253 N 
ATOM     12  H   UNL     1       4.606  -0.580  10.443  0.00  0.00    +0.151 HD
ENDROOT
BRANCH   7  13
ATOM     13  C   UNL     1       4.895   0.371   7.909  0.00  0.00    -0.019 A 
ATOM     14  C   UNL     1       5.607  -0.743   7.505  0.00  0.00    +0.006 A 
ATOM     15  C   UNL     1       6.769  -0.594   6.770  0.00  0.00    +0.004 A 
ATOM     16  C   UNL     1       7.220   0.669   6.438  0.00  0.00    +0.045 A 
ATOM     17  C   UNL     1       6.508   1.788   6.842  0.00  0.00    +0.121 A 
ATOM     18  C   UNL     1       5.339   1.636   7.574  0.00  0.00    +0.051 A 
BRANCH  17  19
ATOM     19  O   UNL     1       6.950   3.031   6.516  0.00  0.00    -0.487 OA
BRANCH  19  20
ATOM     20  C   UNL     1       8.157   3.111   5.755  0.00  0.00    +0.264 C 
BRANCH  20  21
ATOM     21  C   UNL     1       8.488   4.558   5.491  0.00  0.00    -0.010 A 
ATOM     22  C   UNL     1       8.000   5.183   4.359  0.00  0.00    +0.007 A 
ATOM     23  C   UNL     1       8.304   6.510   4.117  0.00  0.00    +0.000 A 
ATOM     24  C   UNL     1       9.097   7.211   5.007  0.00  0.00    +0.000 A 
ATOM     25  C   UNL     1       9.585   6.585   6.139  0.00  0.00    +0.000 A 
ATOM     26  C   UNL     1       9.277   5.260   6.383  0.00  0.00    +0.007 A 
ENDBRANCH  20  21
ENDBRANCH  19  20
ENDBRANCH  17  19
ENDBRANCH   7  13
BRANCH   1  27
ATOM     27  C   UNL     1       0.207   0.209   4.887  0.00  0.00    +0.106 C 
BRANCH  27  28
ATOM     28  C   UNL     1       0.877  -0.353   3.631  0.00  0.00    +0.000 C 
BRANCH  28  29
ATOM     29  C   UNL     1       0.067   0.050   2.397  0.00  0.00    -0.077 C 
BRANCH  29  36
ATOM     30  C   UNL     1      -0.019   1.526   0.010  0.00  0.00    -0.013 C 
ATOM     31  C   UNL     1       0.002  -0.004   0.002  0.00  0.00    -0.072 C 
ATOM     32  C   UNL     1       0.717  -0.497  -1.258  0.00  0.00    -0.016 C 
ATOM     33  C   UNL     1       0.735  -2.028  -1.262  0.00  0.00    -0.003 C 
ATOM     34  C   UNL     1       1.410  -2.524   0.020  0.00  0.00    -0.019 C 
ATOM     35  C   UNL     1       0.669  -1.956   1.232  0.00  0.00    -0.078 C 
ATOM     36  N   UNL     1       0.711  -0.490   1.192  0.00  0.00    +0.381 N 
ATOM     37  H   UNL     1       1.671  -0.182   1.159  0.00  0.00    -0.081 HD
ENDBRANCH  29  36
ENDBRANCH  28  29
ENDBRANCH  27  28
ENDBRANCH   1  27
BRANCH  11  38
ATOM     38  C   UNL     1       1.413  -3.371   9.159  0.00  0.00    +0.141 C 
BRANCH  38  39
ATOM     39  C   UNL     1       2.081  -4.476   8.382  0.00  0.00    -0.015 C 
ATOM     40  C   UNL     1       2.421  -5.588   8.986  0.00  0.00    +0.005 C 
ENDBRANCH  38  39
ENDBRANCH  11  38
TORSDOF 10
