REMARK  Name = ZINC08306736
REMARK  10 active torsions:
REMARK  status: ('A' for Active; 'I' for Inactive)
REMARK    1  A    between atoms: C_1  and  C_2
REMARK    2  A    between atoms: C_5  and  N_9
REMARK    3  A    between atoms: C_6  and  C_8
REMARK    4  A    between atoms: C_10  and  C_12
REMARK    5  A    between atoms: C_12  and  C_13
REMARK    6  A    between atoms: N_17  and  C_30
REMARK    7  A    between atoms: N_19  and  C_20
REMARK    8  A    between atoms: C_23  and  C_26
REMARK    9  A    between atoms: C_26  and  C_27
REMARK   10  A    between atoms: C_26  and  C_28
REMARK                            x       y       z     vdW  Elec       q    Type
REMARK                         _______ _______ _______ _____ _____    ______ ____
ROOT
ATOM      1  C   UNL     1       3.537  -4.912   0.336  0.00  0.00    +0.149 C 
ATOM      2  C   UNL     1       3.719  -6.411   0.513  0.00  0.00    +0.235 C 
ATOM      3  O   UNL     1       2.982  -7.217  -0.014  0.00  0.00    -0.274 OA
ATOM      4  N   UNL     1       4.731  -6.781   1.279  0.00  0.00    -0.253 N 
ATOM      5  C   UNL     1       5.573  -5.870   1.881  0.00  0.00    +0.164 C 
ATOM      6  N   UNL     1       6.605  -6.108   2.656  0.00  0.00    -0.226 NA
ATOM      7  S   UNL     1       4.929  -4.288   1.357  0.00  0.00    -0.077 S 
ATOM      8  C   UNL     1       4.967  -8.211   1.495  0.00  0.00    +0.140 C 
ENDROOT
BRANCH   6   9
ATOM      9  C   UNL     1       7.076  -7.387   2.794  0.00  0.00    +0.067 A 
ATOM     10  C   UNL     1       7.042  -8.016   4.040  0.00  0.00    +0.028 A 
ATOM     11  C   UNL     1       7.514  -9.306   4.171  0.00  0.00    +0.006 A 
ATOM     12  C   UNL     1       8.031  -9.971   3.073  0.00  0.00    -0.045 A 
ATOM     13  C   UNL     1       8.072  -9.352   1.837  0.00  0.00    +0.006 A 
ATOM     14  C   UNL     1       7.599  -8.064   1.691  0.00  0.00    +0.028 A 
BRANCH  12  15
ATOM     15  C   UNL     1       8.550 -11.378   3.225  0.00  0.00    +0.013 C 
ATOM     16  C   UNL     1       9.695 -11.391   4.241  0.00  0.00    +0.012 C 
ATOM     17  C   UNL     1       7.423 -12.288   3.715  0.00  0.00    +0.012 C 
ENDBRANCH  12  15
ENDBRANCH   6   9
BRANCH   1  18
ATOM     18  C   UNL     1       2.189  -4.448   0.893  0.00  0.00    +0.120 C 
BRANCH  18  20
ATOM     19  N   UNL     1       0.968  -2.316   1.180  0.00  0.00    -0.285 N 
ATOM     20  C   UNL     1       2.078  -2.952   0.754  0.00  0.00    +0.219 C 
ATOM     21  O   UNL     1       2.986  -2.319   0.259  0.00  0.00    -0.275 OA
ATOM     22  H   UNL     1       0.268  -2.813   1.633  0.00  0.00    +0.155 HD
BRANCH  19  27
ATOM     23  C   UNL     1       0.389   3.263   0.330  0.00  0.00    +0.044 C 
ATOM     24  C   UNL     1       0.543   1.781   0.556  0.00  0.00    -0.050 A 
ATOM     25  C   UNL     1       1.389   1.044  -0.253  0.00  0.00    +0.005 A 
ATOM     26  C   UNL     1       1.532  -0.315  -0.048  0.00  0.00    +0.024 A 
ATOM     27  C   UNL     1       0.825  -0.940   0.971  0.00  0.00    +0.036 A 
ATOM     28  C   UNL     1      -0.023  -0.197   1.781  0.00  0.00    -0.029 A 
ATOM     29  C   UNL     1      -0.162   1.161   1.571  0.00  0.00    +0.008 A 
ATOM     30  C   UNL     1      -0.792  -0.872   2.888  0.00  0.00    +0.045 C 
ENDBRANCH  19  27
ENDBRANCH  18  20
ENDBRANCH   1  18
TORSDOF 5
