REMARK  Name = ZINC01973474
REMARK  8 active torsions:
REMARK  status: ('A' for Active; 'I' for Inactive)
REMARK    1  A    between atoms: C_1  and  C_2
REMARK    2  A    between atoms: C_9  and  N_15
REMARK    3  A    between atoms: C_10  and  C_11
REMARK    4  A    between atoms: C_11  and  O_13
REMARK    5  A    between atoms: O_13  and  C_14
REMARK    6  A    between atoms: C_16  and  C_18
REMARK    7  A    between atoms: C_18  and  O_19
REMARK    8  A    between atoms: O_19  and  C_20
REMARK                            x       y       z     vdW  Elec       q    Type
REMARK                         _______ _______ _______ _____ _____    ______ ____
ROOT
ATOM      1  N   UNL     1      -1.119   2.575   0.022  0.00  0.00    -0.277 N 
ATOM      2  C   UNL     1      -2.365   2.062   0.026  0.00  0.00    +0.255 C 
ATOM      3  O   UNL     1      -2.527   0.860   0.020  0.00  0.00    -0.272 OA
ATOM      4  H   UNL     1      -0.990   3.536   0.026  0.00  0.00    +0.155 HD
ENDROOT
BRANCH   1  12
ATOM      5  C   UNL     1       4.798  -2.538  -0.153  0.00  0.00    +0.008 C 
ATOM      6  C   UNL     1       3.950  -1.293  -0.424  0.00  0.00    -0.009 C 
ATOM      7  C   UNL     1       4.473  -0.123   0.415  0.00  0.00    +0.008 C 
ATOM      8  C   UNL     1       3.798   1.176  -0.027  0.00  0.00    +0.037 C 
ATOM      9  C   UNL     1       2.288   0.973  -0.015  0.00  0.00    -0.021 A 
ATOM     10  C   UNL     1       1.753  -0.266  -0.017  0.00  0.00    -0.004 A 
ATOM     11  S   UNL     1       0.002  -0.004   0.002  0.00  0.00    -0.077 S 
ATOM     12  C   UNL     1      -0.021   1.728   0.011  0.00  0.00    +0.086 A 
ATOM     13  C   UNL     1       1.326   2.063   0.001  0.00  0.00    +0.091 A 
ATOM     14  C   UNL     1       2.491  -1.569  -0.032  0.00  0.00    +0.046 C 
BRANCH  13  15
ATOM     15  C   UNL     1       1.762   3.461   0.003  0.00  0.00    +0.342 C 
ATOM     16  O   UNL     1       1.954   4.036   1.058  0.00  0.00    -0.245 OA
BRANCH  15  17
ATOM     17  O   UNL     1       1.951   4.111  -1.163  0.00  0.00    -0.464 OA
ATOM     18  C   UNL     1       2.384   5.495  -1.085  0.00  0.00    +0.280 C 
ENDBRANCH  15  17
ENDBRANCH  13  15
ENDBRANCH   1  12
BRANCH   2  19
ATOM     19  C   UNL     1      -3.559   2.982   0.037  0.00  0.00    +0.325 C 
BRANCH  19  20
ATOM     20  O   UNL     1      -4.759   2.207   0.039  0.00  0.00    -0.481 OA
BRANCH  20  21
ATOM     21  C   UNL     1      -5.933   2.888   0.049  0.00  0.00    +0.143 A 
ATOM     22  C   UNL     1      -5.924   4.273   0.056  0.00  0.00    +0.094 A 
ATOM     23  C   UNL     1      -7.123   4.969   0.066  0.00  0.00    +0.143 A 
ATOM     24  C   UNL     1      -8.337   4.258   0.069  0.00  0.00    +0.023 A 
ATOM     25  C   UNL     1      -8.328   2.858   0.061  0.00  0.00    +0.035 A 
ATOM     26  C   UNL     1      -7.139   2.187   0.046  0.00  0.00    +0.083 A 
ATOM     27 CL   UNL     1      -7.128   0.451   0.029  0.00  0.00    -0.080 Cl
ATOM     28  C   UNL     1      -9.597   5.004   0.082  0.00  0.00    -0.027 A 
ATOM     29  C   UNL     1      -9.545   6.359   0.089  0.00  0.00    +0.041 A 
ATOM     30  C   UNL     1      -8.289   7.007   0.084  0.00  0.00    +0.341 A 
ATOM     31  O   UNL     1      -8.251   8.225   0.089  0.00  0.00    -0.245 OA
ATOM     32  O   UNL     1      -7.138   6.319   0.072  0.00  0.00    -0.422 OA
ATOM     33  C   UNL     1     -10.946   6.931   0.102  0.00  0.00    +0.043 C 
ATOM     34  C   UNL     1     -11.855   5.761   0.537  0.00  0.00    +0.010 C 
ATOM     35  C   UNL     1     -11.033   4.533   0.089  0.00  0.00    +0.036 C 
ENDBRANCH  20  21
ENDBRANCH  19  20
ENDBRANCH   2  19
TORSDOF 6
