REMARK  Name = ZINC40045473
REMARK  5 active torsions:
REMARK  status: ('A' for Active; 'I' for Inactive)
REMARK    1  A    between atoms: C_1  and  C_2
REMARK    2  A    between atoms: C_4  and  C_33
REMARK    3  A    between atoms: C_16  and  C_18
REMARK    4  A    between atoms: C_28  and  C_32
REMARK    5  A    between atoms: C_29  and  C_31
REMARK                            x       y       z     vdW  Elec       q    Type
REMARK                         _______ _______ _______ _____ _____    ______ ____
ROOT
ATOM      1  C   UNL     1      -0.018   1.503   0.010  0.00  0.00    +0.044 C 
ATOM      2  C   UNL     1       0.002  -0.004   0.002  0.00  0.00    -0.049 A 
ATOM      3  C   UNL     1       0.006  -0.689  -1.205  0.00  0.00    +0.010 A 
ATOM      4  C   UNL     1       0.021  -2.065  -1.235  0.00  0.00    -0.007 A 
ATOM      5  C   UNL     1       0.034  -2.790  -0.043  0.00  0.00    +0.142 A 
ATOM      6  C   UNL     1       0.037  -2.086   1.172  0.00  0.00    +0.065 A 
ATOM      7  C   UNL     1       0.023  -0.692   1.183  0.00  0.00    +0.018 A 
ATOM      8  C   UNL     1       0.067  -2.849   2.446  0.00  0.00    +0.199 A 
ATOM      9  O   UNL     1      -0.097  -2.332   3.537  0.00  0.00    -0.287 OA
ATOM     10  C   UNL     1       0.313  -4.283   2.266  0.00  0.00    +0.072 A 
ATOM     11  C   UNL     1       0.293  -4.850   1.023  0.00  0.00    +0.199 A 
ATOM     12  O   UNL     1       0.042  -4.142  -0.096  0.00  0.00    -0.449 OA
ATOM     13  C   UNL     1       0.581  -6.287   1.166  0.00  0.00    +0.289 C 
ATOM     14  O   UNL     1       0.640  -7.080   0.247  0.00  0.00    -0.266 OA
ATOM     15  N   UNL     1       0.768  -6.595   2.466  0.00  0.00    -0.232 N 
ATOM     16  C   UNL     1       0.612  -5.362   3.254  0.00  0.00    +0.151 C 
ATOM     17  C   UNL     1       1.057  -7.855   2.971  0.00  0.00    +0.169 A 
ATOM     18  N   UNL     1       1.242  -8.210   4.225  0.00  0.00    -0.229 NA
ATOM     19  C   UNL     1       1.512  -9.462   4.546  0.00  0.00    +0.050 A 
ATOM     20  C   UNL     1       1.588 -10.357   3.530  0.00  0.00    +0.011 A 
ATOM     21  S   UNL     1       1.248  -9.301   2.131  0.00  0.00    -0.057 S 
ATOM     22  C   UNL     1       1.875 -11.835   3.571  0.00  0.00    +0.053 C 
ATOM     23  C   UNL     1       1.726  -9.877   5.979  0.00  0.00    +0.066 C 
ATOM     24  C   UNL     1       0.023  -2.790  -2.557  0.00  0.00    +0.047 C 
ENDROOT
BRANCH  16  25
ATOM     25  C   UNL     1      -0.529  -5.507   4.227  0.00  0.00    -0.021 A 
ATOM     26  C   UNL     1      -1.659  -6.219   3.866  0.00  0.00    +0.007 A 
ATOM     27  C   UNL     1      -2.706  -6.352   4.757  0.00  0.00    +0.022 A 
ATOM     28  C   UNL     1      -2.625  -5.775   6.012  0.00  0.00    +0.059 A 
ATOM     29  C   UNL     1      -1.494  -5.063   6.373  0.00  0.00    +0.060 A 
ATOM     30  C   UNL     1      -0.444  -4.934   5.482  0.00  0.00    +0.027 A 
ATOM     31 CL   UNL     1      -1.391  -4.337   7.947  0.00  0.00    -0.082 Cl
ATOM     32 CL   UNL     1      -3.941  -5.942   7.131  0.00  0.00    -0.082 Cl
ENDBRANCH  16  25
TORSDOF 1
