REMARK  Name = ZINC35075090
REMARK  9 active torsions:
REMARK  status: ('A' for Active; 'I' for Inactive)
REMARK    1  A    between atoms: C_1  and  C_2
REMARK    2  A    between atoms: C_8  and  N_10
REMARK    3  A    between atoms: N_10  and  C_11
REMARK    4  A    between atoms: C_11  and  C_12
REMARK    5  A    between atoms: C_12  and  C_14
REMARK    6  A    between atoms: C_12  and  O_40
REMARK    7  A    between atoms: C_14  and  N_15
REMARK    8  A    between atoms: C_26  and  C_34
REMARK    9  A    between atoms: C_27  and  C_28
REMARK                            x       y       z     vdW  Elec       q    Type
REMARK                         _______ _______ _______ _____ _____    ______ ____
ROOT
ATOM      1  N   UNL     1       6.404  -0.001   3.478  0.00  0.00    -0.336 N 
ATOM      2  C   UNL     1       7.346  -0.568   2.656  0.00  0.00    +0.058 A 
ATOM      3  C   UNL     1       7.269  -1.538   1.631  0.00  0.00    +0.006 A 
ATOM      4  C   UNL     1       6.044  -2.124   1.279  0.00  0.00    +0.010 A 
ATOM      5  C   UNL     1       6.002  -3.056   0.286  0.00  0.00    +0.001 A 
ATOM      6  C   UNL     1       7.160  -3.437  -0.386  0.00  0.00    +0.001 A 
ATOM      7  C   UNL     1       8.366  -2.888  -0.068  0.00  0.00    +0.008 A 
ATOM      8  C   UNL     1       8.447  -1.924   0.949  0.00  0.00    -0.016 A 
ATOM      9  C   UNL     1       9.684  -1.340   1.296  0.00  0.00    +0.009 A 
ATOM     10  C   UNL     1       9.748  -0.410   2.280  0.00  0.00    +0.011 A 
ATOM     11  C   UNL     1       8.589  -0.012   2.972  0.00  0.00    +0.009 A 
ATOM     12  C   UNL     1       8.348   0.948   4.058  0.00  0.00    +0.015 A 
ATOM     13  C   UNL     1       6.993   0.911   4.317  0.00  0.00    +0.058 A 
ENDROOT
BRANCH  13  14
ATOM     14  C   UNL     1       6.291   1.720   5.333  0.00  0.00    -0.001 A 
ATOM     15  C   UNL     1       5.507   1.096   6.307  0.00  0.00    +0.010 A 
ATOM     16  C   UNL     1       4.855   1.858   7.254  0.00  0.00    +0.001 A 
ATOM     17  C   UNL     1       4.976   3.236   7.242  0.00  0.00    +0.000 A 
ATOM     18  C   UNL     1       5.752   3.860   6.280  0.00  0.00    +0.001 A 
ATOM     19  C   UNL     1       6.413   3.111   5.330  0.00  0.00    +0.010 A 
ENDBRANCH  13  14
BRANCH  12  20
ATOM     20  C   UNL     1       9.358   1.792   4.736  0.00  0.00    -0.015 A 
ATOM     21  C   UNL     1       9.656   1.582   6.082  0.00  0.00    +0.008 A 
ATOM     22  C   UNL     1      10.598   2.371   6.709  0.00  0.00    +0.001 A 
ATOM     23  C   UNL     1      11.247   3.370   6.004  0.00  0.00    +0.000 A 
ATOM     24  C   UNL     1      10.956   3.583   4.668  0.00  0.00    +0.001 A 
ATOM     25  C   UNL     1      10.020   2.796   4.029  0.00  0.00    +0.008 A 
ENDBRANCH  12  20
BRANCH   1  26
ATOM     26  C   UNL     1       4.974  -0.321   3.459  0.00  0.00    +0.151 C 
BRANCH  26  27
ATOM     27  C   UNL     1       4.254   0.624   2.494  0.00  0.00    +0.117 C 
BRANCH  27  28
ATOM     28  O   UNL     1       4.722   0.393   1.164  0.00  0.00    -0.392 OA
ATOM     29  H   UNL     1       4.574  -0.508   0.845  0.00  0.00    +0.210 HD
ENDBRANCH  27  28
BRANCH  27  30
ATOM     30  C   UNL     1       2.747   0.365   2.557  0.00  0.00    -0.049 C 
BRANCH  30  31
ATOM     31  N   UNL     1       2.056   1.271   1.630  0.00  0.00    +0.383 N 
ATOM     32  H   UNL     1       2.386   1.108   0.691  0.00  0.00    -0.085 HD
ATOM     33  H   UNL     1       2.244   2.227   1.892  0.00  0.00    -0.085 HD
BRANCH  31  40
ATOM     34  C   UNL     1       0.176   3.357   0.912  0.00  0.00    +0.006 C 
ATOM     35  C   UNL     1      -0.099   1.877   0.637  0.00  0.00    -0.028 C 
ATOM     36  C   UNL     1      -1.606   1.619   0.700  0.00  0.00    +0.002 C 
ATOM     37  C   UNL     1      -2.129   1.985   2.090  0.00  0.00    +0.000 C 
ATOM     38  C   UNL     1      -1.421   1.130   3.143  0.00  0.00    -0.002 C 
ATOM     39  C   UNL     1       0.086   1.389   3.080  0.00  0.00    -0.016 C 
ATOM     40  C   UNL     1       0.609   1.023   1.690  0.00  0.00    -0.069 C 
ENDBRANCH  31  40
ENDBRANCH  30  31
ENDBRANCH  27  30
ENDBRANCH  26  27
ENDBRANCH   1  26
TORSDOF 8
