REMARK  Name = ZINC44855538
REMARK  8 active torsions:
REMARK  status: ('A' for Active; 'I' for Inactive)
REMARK    1  A    between atoms: C_1  and  C_2
REMARK    2  A    between atoms: C_2  and  C_32
REMARK    3  A    between atoms: C_4  and  N_15
REMARK    4  A    between atoms: C_8  and  O_13
REMARK    5  A    between atoms: O_13  and  C_14
REMARK    6  A    between atoms: C_16  and  C_18
REMARK    7  A    between atoms: N_21  and  C_24
REMARK    8  A    between atoms: C_24  and  C_25
REMARK                            x       y       z     vdW  Elec       q    Type
REMARK                         _______ _______ _______ _____ _____    ______ ____
ROOT
ATOM      1  N   UNL     1      -3.410  -0.633   1.479  0.00  0.00    -0.308 N 
ATOM      2  C   UNL     1      -4.418  -0.010   2.120  0.00  0.00    +0.216 C 
ATOM      3  O   UNL     1      -4.276   1.129   2.511  0.00  0.00    -0.276 OA
ATOM      4  H   UNL     1      -3.524  -1.544   1.166  0.00  0.00    +0.149 HD
ENDROOT
BRANCH   1   8
ATOM      5  C   UNL     1      -0.019   1.526   0.010  0.00  0.00    +0.055 C 
ATOM      6  C   UNL     1       0.002  -0.004   0.002  0.00  0.00    +0.107 C 
ATOM      7  C   UNL     1      -1.435  -0.540   0.040  0.00  0.00    +0.074 C 
ATOM      8  C   UNL     1      -2.142   0.066   1.254  0.00  0.00    +0.111 C 
ATOM      9  C   UNL     1      -1.269  -0.077   2.475  0.00  0.00    +0.018 A 
ATOM     10  C   UNL     1      -1.847   0.054   3.726  0.00  0.00    +0.054 A 
ATOM     11  C   UNL     1      -1.075  -0.068   4.870  0.00  0.00    +0.121 A 
ATOM     12  C   UNL     1       0.285  -0.322   4.761  0.00  0.00    +0.049 A 
ATOM     13  C   UNL     1       0.862  -0.454   3.514  0.00  0.00    +0.049 A 
ATOM     14  C   UNL     1       0.086  -0.334   2.366  0.00  0.00    +0.126 A 
ATOM     15  O   UNL     1       0.692  -0.482   1.157  0.00  0.00    -0.486 OA
ATOM     16  C   UNL     1       0.706  -0.503  -1.262  0.00  0.00    +0.055 C 
BRANCH  11  17
ATOM     17  O   UNL     1      -1.647   0.062   6.096  0.00  0.00    -0.495 OA
ATOM     18  C   UNL     1      -0.789  -0.076   7.231  0.00  0.00    +0.277 C 
ENDBRANCH  11  17
ENDBRANCH   1   8
BRANCH   2  19
ATOM     19  C   UNL     1      -5.723  -0.728   2.351  0.00  0.00    +0.071 C 
ATOM     20  C   UNL     1      -6.338  -1.119   1.004  0.00  0.00    -0.006 C 
ATOM     21  C   UNL     1      -7.699  -1.777   1.242  0.00  0.00    -0.078 C 
ATOM     22  N   UNL     1      -8.587  -0.835   1.933  0.00  0.00    +0.382 N 
ATOM     23  C   UNL     1      -8.039  -0.511   3.256  0.00  0.00    -0.078 C 
ATOM     24  C   UNL     1      -6.692   0.195   3.095  0.00  0.00    -0.006 C 
ATOM     25  H   UNL     1      -8.669   0.011   1.388  0.00  0.00    -0.081 HD
BRANCH  22  26
ATOM     26  C   UNL     1      -9.916  -1.442   2.090  0.00  0.00    -0.043 C 
BRANCH  26  27
ATOM     27  C   UNL     1     -10.862  -0.433   2.688  0.00  0.00    -0.064 A 
ATOM     28  C   UNL     1     -10.993  -0.336   4.061  0.00  0.00    +0.003 A 
ATOM     29  C   UNL     1     -11.860   0.589   4.609  0.00  0.00    +0.015 A 
ATOM     30  C   UNL     1     -12.598   1.419   3.784  0.00  0.00    +0.018 A 
ATOM     31  C   UNL     1     -12.467   1.322   2.410  0.00  0.00    +0.015 A 
ATOM     32  C   UNL     1     -11.595   0.400   1.863  0.00  0.00    +0.003 A 
ATOM     33 BR   UNL     1     -13.786   2.685   4.534  0.00  0.00    -0.050 Br
ENDBRANCH  26  27
ENDBRANCH  22  26
ENDBRANCH   2  19
TORSDOF 5
