REMARK  Name = ZINC13036285
REMARK  3 active torsions:
REMARK  status: ('A' for Active; 'I' for Inactive)
REMARK    1  A    between atoms: C_10  and  C_22
REMARK    2  A    between atoms: C_13  and  C_16
REMARK    3  A    between atoms: C_26  and  O_28
REMARK                            x       y       z     vdW  Elec       q    Type
REMARK                         _______ _______ _______ _____ _____    ______ ____
ROOT
ATOM      1  C   UNL     1       2.834   4.232   2.558  0.00  0.00    +0.001 A 
ATOM      2  C   UNL     1       1.694   4.782   3.115  0.00  0.00    +0.004 A 
ATOM      3  C   UNL     1       0.449   4.387   2.676  0.00  0.00    +0.046 A 
ATOM      4  C   UNL     1       0.323   3.430   1.668  0.00  0.00    +0.129 A 
ATOM      5  C   UNL     1       1.472   2.896   1.106  0.00  0.00    +0.017 A 
ATOM      6  C   UNL     1       2.719   3.291   1.554  0.00  0.00    +0.009 A 
ATOM      7  C   UNL     1       1.376   1.878  -0.001  0.00  0.00    +0.136 C 
ATOM      8  C   UNL     1       2.192   0.616   0.309  0.00  0.00    +0.086 C 
ATOM      9  C   UNL     1       1.181  -0.505   0.180  0.00  0.00    +0.069 C 
ATOM     10  N   UNL     1       0.002  -0.004   0.002  0.00  0.00    -0.184 NA
ATOM     11  N   UNL     1      -0.017   1.379   0.010  0.00  0.00    -0.204 N 
ATOM     12  C   UNL     1      -1.149   2.309   0.112  0.00  0.00    +0.329 C 
ATOM     13  O   UNL     1      -0.935   3.070   1.306  0.00  0.00    -0.463 OA
ENDROOT
BRANCH  12  14
ATOM     14  C   UNL     1      -2.442   1.542   0.212  0.00  0.00    +0.101 A 
ATOM     15  C   UNL     1      -3.506   2.084   0.908  0.00  0.00    +0.029 A 
ATOM     16  C   UNL     1      -4.691   1.370   0.994  0.00  0.00    +0.003 A 
ATOM     17  C   UNL     1      -4.762   0.132   0.373  0.00  0.00    +0.020 A 
ATOM     18  C   UNL     1      -3.657  -0.346  -0.305  0.00  0.00    +0.111 A 
ATOM     19  N   UNL     1      -2.547   0.363  -0.370  0.00  0.00    -0.254 NA
ENDBRANCH  12  14
BRANCH   9  20
ATOM     20  C   UNL     1       1.493  -1.945   0.248  0.00  0.00    +0.001 A 
ATOM     21  C   UNL     1       2.810  -2.369   0.439  0.00  0.00    +0.010 A 
ATOM     22  C   UNL     1       3.097  -3.716   0.507  0.00  0.00    +0.004 A 
ATOM     23  C   UNL     1       2.086  -4.651   0.376  0.00  0.00    +0.045 A 
ATOM     24  C   UNL     1       0.774  -4.239   0.180  0.00  0.00    +0.117 A 
ATOM     25  C   UNL     1       0.473  -2.889   0.116  0.00  0.00    +0.055 A 
BRANCH  24  26
ATOM     26  O   UNL     1      -0.215  -5.162   0.052  0.00  0.00    -0.507 OA
ATOM     27  H   UNL     1      -0.375  -5.443  -0.859  0.00  0.00    +0.292 HD
ENDBRANCH  24  26
ENDBRANCH   9  20
TORSDOF 3
