REMARK  Name = ZINC59148622
REMARK  11 active torsions:
REMARK  status: ('A' for Active; 'I' for Inactive)
REMARK    1  A    between atoms: C_1  and  C_2
REMARK    2  A    between atoms: C_2  and  C_4
REMARK    3  A    between atoms: C_2  and  C_14
REMARK    4  A    between atoms: C_7  and  C_10
REMARK    5  A    between atoms: C_10  and  C_11
REMARK    6  A    between atoms: C_11  and  C_12
REMARK    7  A    between atoms: C_11  and  C_13
REMARK    8  A    between atoms: N_16  and  N_17
REMARK    9  A    between atoms: N_25  and  C_28
REMARK   10  A    between atoms: C_28  and  C_29
REMARK   11  A    between atoms: C_29  and  N_30
REMARK                            x       y       z     vdW  Elec       q    Type
REMARK                         _______ _______ _______ _____ _____    ______ ____
ROOT
ATOM      1  N   UNL     1       2.647  -0.598  -2.614  0.00  0.00    -0.175 NA
ATOM      2  C   UNL     1       3.862  -0.184  -2.882  0.00  0.00    +0.153 C 
ATOM      3  C   UNL     1       4.732   0.666  -2.036  0.00  0.00    +0.028 A 
ATOM      4  C   UNL     1       4.565   1.255  -0.788  0.00  0.00    +0.012 A 
ATOM      5  C   UNL     1       5.585   2.011  -0.246  0.00  0.00    +0.001 A 
ATOM      6  C   UNL     1       6.769   2.181  -0.944  0.00  0.00    +0.002 A 
ATOM      7  C   UNL     1       6.944   1.600  -2.183  0.00  0.00    +0.024 A 
ATOM      8  C   UNL     1       5.928   0.835  -2.745  0.00  0.00    +0.046 A 
ATOM      9  N   UNL     1       5.847   0.152  -3.954  0.00  0.00    -0.267 N 
ATOM     10  C   UNL     1       4.664  -0.469  -4.089  0.00  0.00    +0.271 C 
ATOM     11  O   UNL     1       4.313  -1.145  -5.039  0.00  0.00    -0.268 OA
ENDROOT
BRANCH   1  14
ATOM     12  C   UNL     1       0.759  -0.591  -1.164  0.00  0.00    +0.239 C 
ATOM     13  O   UNL     1       0.270  -1.486  -1.819  0.00  0.00    -0.273 OA
ATOM     14  N   UNL     1       1.962  -0.087  -1.504  0.00  0.00    -0.206 N 
ATOM     15  H   UNL     1       2.353   0.629  -0.980  0.00  0.00    +0.177 HD
BRANCH  12  17
ATOM     16  C   UNL     1      -0.248   1.450  -0.179  0.00  0.00    +0.022 C 
ATOM     17  C   UNL     1       0.022  -0.042   0.030  0.00  0.00    +0.103 C 
BRANCH  17  18
ATOM     18  C   UNL     1      -1.287  -0.771   0.192  0.00  0.00    -0.036 A 
ATOM     19  C   UNL     1      -2.223  -0.745  -0.825  0.00  0.00    +0.004 A 
ATOM     20  C   UNL     1      -3.423  -1.414  -0.677  0.00  0.00    +0.004 A 
ATOM     21  C   UNL     1      -3.688  -2.110   0.489  0.00  0.00    -0.047 A 
ATOM     22  C   UNL     1      -2.751  -2.136   1.505  0.00  0.00    +0.004 A 
ATOM     23  C   UNL     1      -1.549  -1.471   1.355  0.00  0.00    +0.004 A 
BRANCH  21  24
ATOM     24  C   UNL     1      -4.997  -2.838   0.651  0.00  0.00    +0.038 C 
BRANCH  24  25
ATOM     25  C   UNL     1      -4.851  -4.270   0.132  0.00  0.00    -0.013 C 
ATOM     26  C   UNL     1      -3.853  -5.031   1.007  0.00  0.00    +0.007 C 
ATOM     27  C   UNL     1      -6.210  -4.971   0.181  0.00  0.00    +0.007 C 
ENDBRANCH  24  25
ENDBRANCH  21  24
ENDBRANCH  17  18
ENDBRANCH  12  17
ENDBRANCH   1  14
BRANCH   9  28
ATOM     28  C   UNL     1       6.919   0.111  -4.952  0.00  0.00    +0.095 C 
BRANCH  28  29
ATOM     29  C   UNL     1       7.833  -1.083  -4.669  0.00  0.00    -0.059 C 
BRANCH  29  30
ATOM     30  N   UNL     1       8.908  -1.125  -5.669  0.00  0.00    +0.381 N 
ATOM     31  C   UNL     1       8.331  -1.372  -6.996  0.00  0.00    -0.079 C 
ATOM     32  C   UNL     1       9.437  -1.336  -8.053  0.00  0.00    -0.019 C 
ATOM     33  C   UNL     1      10.473  -2.418  -7.736  0.00  0.00    -0.004 C 
ATOM     34  C   UNL     1      11.015  -2.193  -6.321  0.00  0.00    -0.019 C 
ATOM     35  C   UNL     1       9.850  -2.198  -5.329  0.00  0.00    -0.079 C 
ATOM     36  H   UNL     1       9.394  -0.241  -5.676  0.00  0.00    -0.082 HD
ENDBRANCH  29  30
ENDBRANCH  28  29
ENDBRANCH   9  28
TORSDOF 8
