REMARK  Name = ZINC20344379
REMARK  9 active torsions:
REMARK  status: ('A' for Active; 'I' for Inactive)
REMARK    1  A    between atoms: C_1  and  C_2
REMARK    2  A    between atoms: C_4  and  C_30
REMARK    3  A    between atoms: C_5  and  C_9
REMARK    4  A    between atoms: C_6  and  C_8
REMARK    5  A    between atoms: C_9  and  S_10
REMARK    6  A    between atoms: S_10  and  C_11
REMARK    7  A    between atoms: N_17  and  N_18
REMARK    8  A    between atoms: C_19  and  C_20
REMARK    9  A    between atoms: C_19  and  C_21
REMARK                            x       y       z     vdW  Elec       q    Type
REMARK                         _______ _______ _______ _____ _____    ______ ____
ROOT
ATOM      1  C   UNL     1       1.632  -6.614  -0.043  0.00  0.00    +0.191 A 
ATOM      2  N   UNL     1       2.667  -7.505  -0.048  0.00  0.00    -0.303 N 
ATOM      3  H   UNL     1       3.611  -7.282  -0.047  0.00  0.00    +0.171 HD
ATOM      4  C   UNL     1       2.139  -8.766  -0.054  0.00  0.00    +0.235 A 
ATOM      5  N   UNL     1       0.832  -8.658  -0.053  0.00  0.00    -0.111 NA
ATOM      6  N   UNL     1       0.511  -7.295  -0.040  0.00  0.00    -0.121 NA
ATOM      7  N   UNL     1       2.859  -9.952  -0.061  0.00  0.00    -0.205 N 
ATOM      8  H   UNL     1       3.829  -9.930  -0.062  0.00  0.00    +0.177 HD
ENDROOT
BRANCH   7   9
ATOM      9  N   UNL     1       2.186 -11.181  -0.067  0.00  0.00    -0.184 NA
ATOM     10  C   UNL     1       2.860 -12.290  -0.073  0.00  0.00    +0.063 C 
ATOM     11  C   UNL     1       4.367 -12.257  -0.074  0.00  0.00    +0.068 C 
BRANCH  10  12
ATOM     12  C   UNL     1       2.151 -13.583  -0.079  0.00  0.00    +0.001 A 
ATOM     13  C   UNL     1       2.875 -14.779  -0.080  0.00  0.00    +0.013 A 
ATOM     14  C   UNL     1       2.210 -15.986  -0.086  0.00  0.00    +0.050 A 
ATOM     15  C   UNL     1       0.823 -16.020  -0.090  0.00  0.00    +0.166 A 
ATOM     16  C   UNL     1       0.094 -14.831  -0.089  0.00  0.00    +0.167 A 
ATOM     17  C   UNL     1       0.755 -13.617  -0.078  0.00  0.00    +0.059 A 
ATOM     18  O   UNL     1      -1.237 -15.135  -0.095  0.00  0.00    -0.453 OA
ATOM     19  C   UNL     1      -1.315 -16.511  -0.512  0.00  0.00    +0.466 C 
ATOM     20  O   UNL     1      -0.054 -17.067  -0.096  0.00  0.00    -0.453 OA
ENDBRANCH  10  12
ENDBRANCH   7   9
BRANCH   1  21
ATOM     21  S   UNL     1       1.777  -4.858  -0.034  0.00  0.00    -0.081 S 
BRANCH  21  22
ATOM     22  C   UNL     1       0.059  -4.275  -0.021  0.00  0.00    +0.113 C 
BRANCH  22  27
ATOM     23  C   UNL     1      -0.018   1.503   0.010  0.00  0.00    +0.044 C 
ATOM     24  C   UNL     1       0.002  -0.004   0.002  0.00  0.00    -0.050 A 
ATOM     25  C   UNL     1       0.006  -0.689  -1.199  0.00  0.00    +0.007 A 
ATOM     26  C   UNL     1       0.025  -2.071  -1.206  0.00  0.00    -0.046 A 
ATOM     27  C   UNL     1       0.040  -2.768  -0.013  0.00  0.00    -0.031 A 
ATOM     28  C   UNL     1       0.037  -2.084   1.188  0.00  0.00    -0.046 A 
ATOM     29  C   UNL     1       0.023  -0.702   1.195  0.00  0.00    +0.007 A 
ATOM     30  C   UNL     1       0.054  -2.844   2.489  0.00  0.00    +0.044 C 
ATOM     31  C   UNL     1       0.027  -2.817  -2.516  0.00  0.00    +0.044 C 
ENDBRANCH  22  27
ENDBRANCH  21  22
ENDBRANCH   1  21
TORSDOF 5
