REMARK  Name = ZINC41664292
REMARK  12 active torsions:
REMARK  status: ('A' for Active; 'I' for Inactive)
REMARK    1  A    between atoms: C_1  and  C_2
REMARK    2  A    between atoms: C_12  and  C_34
REMARK    3  A    between atoms: C_13  and  C_15
REMARK    4  A    between atoms: C_15  and  S_16
REMARK    5  A    between atoms: S_16  and  C_17
REMARK    6  A    between atoms: C_20  and  C_25
REMARK    7  A    between atoms: N_21  and  C_22
REMARK    8  A    between atoms: C_22  and  C_23
REMARK    9  A    between atoms: C_25  and  O_26
REMARK   10  A    between atoms: O_26  and  C_27
REMARK   11  A    between atoms: C_34  and  O_36
REMARK   12  A    between atoms: O_36  and  C_37
REMARK                            x       y       z     vdW  Elec       q    Type
REMARK                         _______ _______ _______ _____ _____    ______ ____
ROOT
ATOM      1  C   UNL     1       0.422  -6.355   2.695  0.00  0.00    +0.133 C 
ENDROOT
BRANCH   1  13
ATOM      2  C   UNL     1       0.522   1.809   0.567  0.00  0.00    +0.009 C 
ATOM      3  C   UNL     1       0.573   0.287   0.416  0.00  0.00    +0.003 C 
ATOM      4  C   UNL     1       1.538  -0.083  -0.712  0.00  0.00    +0.006 C 
ATOM      5  C   UNL     1       1.565  -1.603  -0.886  0.00  0.00    +0.019 C 
ATOM      6  C   UNL     1       2.063  -2.252   0.409  0.00  0.00    +0.108 C 
ATOM      7  N   UNL     1       1.227  -1.786   1.524  0.00  0.00    -0.299 N 
ATOM      8  C   UNL     1       1.060  -0.340   1.726  0.00  0.00    +0.111 C 
ATOM      9  C   UNL     1       0.611  -2.688   2.365  0.00  0.00    +0.218 A 
ATOM     10  N   UNL     1      -0.141  -2.233   3.359  0.00  0.00    -0.222 NA
ATOM     11  C   UNL     1      -0.748  -3.063   4.185  0.00  0.00    +0.131 A 
ATOM     12  C   UNL     1      -0.588  -4.444   4.001  0.00  0.00    +0.099 A 
ATOM     13  C   UNL     1       0.215  -4.882   2.939  0.00  0.00    +0.071 A 
ATOM     14  N   UNL     1       0.783  -3.987   2.154  0.00  0.00    -0.218 NA
BRANCH  12  15
ATOM     15  C   UNL     1      -1.246  -5.409   4.900  0.00  0.00    +0.342 C 
ATOM     16  O   UNL     1      -1.184  -6.599   4.664  0.00  0.00    -0.245 OA
BRANCH  15  17
ATOM     17  O   UNL     1      -1.916  -4.970   5.984  0.00  0.00    -0.464 OA
ATOM     18  C   UNL     1      -2.530  -5.961   6.811  0.00  0.00    +0.280 C 
ENDBRANCH  15  17
ENDBRANCH  12  15
ENDBRANCH   1  13
BRANCH   1  19
ATOM     19  S   UNL     1      -0.966  -7.008   1.727  0.00  0.00    -0.080 S 
BRANCH  19  20
ATOM     20  C   UNL     1      -0.581  -8.716   1.528  0.00  0.00    +0.192 A 
ATOM     21  N   UNL     1       0.478  -9.337   1.995  0.00  0.00    -0.122 NA
ATOM     22  N   UNL     1       0.438 -10.578   1.662  0.00  0.00    -0.130 NA
ATOM     23  C   UNL     1      -0.638 -10.821   0.969  0.00  0.00    +0.172 A 
ATOM     24  N   UNL     1      -1.329  -9.645   0.863  0.00  0.00    -0.299 N 
BRANCH  24  25
ATOM     25  C   UNL     1      -2.604  -9.427   0.177  0.00  0.00    +0.152 C 
BRANCH  25  26
ATOM     26  C   UNL     1      -2.344  -9.055  -1.260  0.00  0.00    -0.013 C 
ATOM     27  C   UNL     1      -2.898  -9.745  -2.226  0.00  0.00    +0.005 C 
ENDBRANCH  25  26
ENDBRANCH  24  25
BRANCH  23  28
ATOM     28  C   UNL     1      -1.050 -12.152   0.395  0.00  0.00    +0.305 C 
BRANCH  28  29
ATOM     29  O   UNL     1      -1.847 -12.856   1.349  0.00  0.00    -0.484 OA
BRANCH  29  30
ATOM     30  C   UNL     1      -2.303 -14.084   0.986  0.00  0.00    +0.121 A 
ATOM     31  C   UNL     1      -1.984 -14.603  -0.260  0.00  0.00    +0.047 A 
ATOM     32  C   UNL     1      -2.449 -15.851  -0.627  0.00  0.00    +0.023 A 
ATOM     33  C   UNL     1      -3.232 -16.583   0.247  0.00  0.00    +0.041 A 
ATOM     34  C   UNL     1      -3.552 -16.067   1.490  0.00  0.00    +0.023 A 
ATOM     35  C   UNL     1      -3.084 -14.822   1.864  0.00  0.00    +0.047 A 
ATOM     36 CL   UNL     1      -3.815 -18.151  -0.217  0.00  0.00    -0.084 Cl
ENDBRANCH  29  30
ENDBRANCH  28  29
ENDBRANCH  23  28
ENDBRANCH  19  20
ENDBRANCH   1  19
TORSDOF 10
