REMARK  Name = ZINC39853674
REMARK  4 active torsions:
REMARK  status: ('A' for Active; 'I' for Inactive)
REMARK    1  A    between atoms: C_4  and  C_7
REMARK    2  A    between atoms: N_11  and  C_22
REMARK    3  A    between atoms: C_22  and  C_23
REMARK    4  A    between atoms: C_23  and  C_24
REMARK                            x       y       z     vdW  Elec       q    Type
REMARK                         _______ _______ _______ _____ _____    ______ ____
ROOT
ATOM      1  C   UNL     1       3.695  -0.684  -0.038  0.00  0.00    +0.252 C 
ATOM      2  O   UNL     1       2.635  -0.096   0.046  0.00  0.00    -0.270 OA
ATOM      3  N   UNL     1       3.714  -2.028  -0.147  0.00  0.00    -0.248 N 
ATOM      4  C   UNL     1       4.975  -2.804  -0.164  0.00  0.00    +0.201 C 
ATOM      5  N   UNL     1       4.851  -3.857  -1.183  0.00  0.00    -0.282 NA
ATOM      6  C   UNL     1       3.816  -4.846  -0.852  0.00  0.00    +0.123 C 
ATOM      7  C   UNL     1       2.509  -4.109  -0.575  0.00  0.00    -0.001 A 
ATOM      8  C   UNL     1       2.555  -2.779  -0.246  0.00  0.00    +0.081 A 
ATOM      9  S   UNL     1       0.859  -2.341  -0.012  0.00  0.00    -0.078 S 
ATOM     10  C   UNL     1       0.162  -3.938  -0.348  0.00  0.00    -0.005 A 
ATOM     11  C   UNL     1       1.244  -4.716  -0.632  0.00  0.00    -0.031 A 
ATOM     12  C   UNL     1       1.062  -6.192  -0.977  0.00  0.00    +0.036 C 
ATOM     13  C   UNL     1      -0.322  -6.641  -0.506  0.00  0.00    +0.005 C 
ATOM     14  C   UNL     1      -1.396  -5.703  -1.065  0.00  0.00    +0.005 C 
ATOM     15  C   UNL     1      -1.276  -4.345  -0.338  0.00  0.00    +0.043 C 
ENDROOT
BRANCH   1  19
ATOM     16  C   UNL     1       7.341   1.493   0.012  0.00  0.00    +0.000 A 
ATOM     17  C   UNL     1       6.270   1.961  -0.727  0.00  0.00    +0.001 A 
ATOM     18  C   UNL     1       5.083   1.259  -0.748  0.00  0.00    +0.013 A 
ATOM     19  C   UNL     1       4.964   0.073  -0.021  0.00  0.00    +0.037 A 
ATOM     20  C   UNL     1       6.049  -0.394   0.723  0.00  0.00    +0.013 A 
ATOM     21  C   UNL     1       7.231   0.319   0.735  0.00  0.00    +0.001 A 
ENDBRANCH   1  19
BRANCH   5  22
ATOM     22  C   UNL     1       6.144  -4.510  -1.426  0.00  0.00    +0.087 C 
BRANCH  22  23
ATOM     23  C   UNL     1       7.113  -3.506  -2.055  0.00  0.00    +0.029 C 
BRANCH  23  24
ATOM     24  C   UNL     1       8.460  -4.186  -2.307  0.00  0.00    +0.063 C 
ATOM     25  C   UNL     1       9.153  -4.501  -0.997  0.00  0.00    +0.092 C 
ATOM     26  N   UNL     1      10.261  -3.851  -0.975  0.00  0.00    -0.259 NA
ATOM     27  C   UNL     1      10.486  -3.095  -2.092  0.00  0.00    +0.067 A 
ATOM     28  C   UNL     1       9.418  -3.236  -2.989  0.00  0.00    -0.014 A 
ATOM     29  C   UNL     1       9.408  -2.574  -4.191  0.00  0.00    +0.006 A 
ATOM     30  C   UNL     1      10.468  -1.750  -4.534  0.00  0.00    +0.000 A 
ATOM     31  C   UNL     1      11.532  -1.597  -3.664  0.00  0.00    +0.002 A 
ATOM     32  C   UNL     1      11.551  -2.261  -2.445  0.00  0.00    +0.028 A 
ENDBRANCH  23  24
ENDBRANCH  22  23
ENDBRANCH   5  22
TORSDOF 4
