REMARK  Name = ZINC40748904
REMARK  4 active torsions:
REMARK  status: ('A' for Active; 'I' for Inactive)
REMARK    1  A    between atoms: C_1  and  C_2
REMARK    2  A    between atoms: C_2  and  C_3
REMARK    3  A    between atoms: C_3  and  N_4
REMARK    4  A    between atoms: N_4  and  C_12
REMARK                            x       y       z     vdW  Elec       q    Type
REMARK                         _______ _______ _______ _____ _____    ______ ____
ROOT
ATOM      1  N   UNL     1       0.738  -1.962  -1.265  0.00  0.00    -0.312 N 
ATOM      2  C   UNL     1      -0.418  -1.748  -0.523  0.00  0.00    +0.122 A 
ATOM      3  C   UNL     1      -1.490  -1.070  -1.098  0.00  0.00    +0.045 A 
ATOM      4  C   UNL     1      -2.634  -0.864  -0.349  0.00  0.00    +0.020 A 
ATOM      5  C   UNL     1      -2.669  -1.343   0.954  0.00  0.00    +0.036 A 
ATOM      6  C   UNL     1      -1.569  -2.008   1.460  0.00  0.00    +0.128 A 
ATOM      7  N   UNL     1      -0.492  -2.195   0.720  0.00  0.00    -0.239 NA
ATOM      8 BR   UNL     1      -4.208  -1.089   2.024  0.00  0.00    -0.049 Br
ENDROOT
BRANCH   1   9
ATOM      9  C   UNL     1       1.719  -2.956  -0.821  0.00  0.00    +0.072 C 
ATOM     10  C   UNL     1       1.004  -4.066  -0.044  0.00  0.00    +0.006 C 
ATOM     11  C   UNL     1       0.081  -4.830  -1.006  0.00  0.00    -0.070 C 
ATOM     12  C   UNL     1      -0.741  -3.789  -1.800  0.00  0.00    -0.017 C 
ATOM     13  C   UNL     1       0.126  -3.459  -3.033  0.00  0.00    -0.017 C 
ATOM     14  C   UNL     1       1.393  -4.330  -2.871  0.00  0.00    -0.070 C 
ATOM     15  C   UNL     1       2.427  -3.553  -2.041  0.00  0.00    +0.006 C 
ATOM     16  N   UNL     1       0.947  -5.486  -2.021  0.00  0.00    +0.383 N 
ATOM     17  H   UNL     1       1.732  -5.940  -1.579  0.00  0.00    -0.085 HD
ATOM     18  H   UNL     1       0.415  -6.145  -2.570  0.00  0.00    -0.085 HD
ENDBRANCH   1   9
BRANCH   1  19
ATOM     19  C   UNL     1       0.976  -1.195  -2.490  0.00  0.00    +0.106 C 
BRANCH  19  21
ATOM     20  C   UNL     1       1.987   0.888  -3.428  0.00  0.00    +0.005 C 
ATOM     21  C   UNL     1       1.739   0.087  -2.149  0.00  0.00    +0.016 C 
ENDBRANCH  19  21
ENDBRANCH   1  19
TORSDOF 3
