REMARK  Name = ZINC02726960
REMARK  8 active torsions:
REMARK  status: ('A' for Active; 'I' for Inactive)
REMARK    1  A    between atoms: C_1  and  N_2
REMARK    2  A    between atoms: C_3  and  C_25
REMARK    3  A    between atoms: C_6  and  S_7
REMARK    4  A    between atoms: S_7  and  C_8
REMARK    5  A    between atoms: C_8  and  C_9
REMARK    6  A    between atoms: N_11  and  N_12
REMARK    7  A    between atoms: C_13  and  C_14
REMARK    8  A    between atoms: C_23  and  O_24
REMARK                            x       y       z     vdW  Elec       q    Type
REMARK                         _______ _______ _______ _____ _____    ______ ____
ROOT
ATOM      1  C   UNL     1       0.569  -1.630   5.141  0.00  0.00    +0.242 C 
ATOM      2  O   UNL     1       0.643  -0.485   5.536  0.00  0.00    -0.273 OA
ATOM      3  N   UNL     1       0.638  -2.651   6.018  0.00  0.00    -0.206 N 
ATOM      4  H   UNL     1       0.580  -3.567   5.702  0.00  0.00    +0.177 HD
ENDROOT
BRANCH   3   5
ATOM      5  N   UNL     1       0.795  -2.391   7.386  0.00  0.00    -0.188 NA
ATOM      6  C   UNL     1       0.862  -3.376   8.231  0.00  0.00    +0.142 C 
BRANCH   6   7
ATOM      7  C   UNL     1       1.026  -3.103   9.666  0.00  0.00    +0.044 A 
ATOM      8  C   UNL     1       1.109  -4.198  10.630  0.00  0.00    -0.006 A 
ATOM      9  C   UNL     1       1.036  -5.536  10.224  0.00  0.00    +0.009 A 
ATOM     10  C   UNL     1       1.117  -6.528  11.155  0.00  0.00    +0.001 A 
ATOM     11  C   UNL     1       1.274  -6.230  12.506  0.00  0.00    +0.001 A 
ATOM     12  C   UNL     1       1.349  -4.940  12.935  0.00  0.00    +0.008 A 
ATOM     13  C   UNL     1       1.268  -3.891  12.003  0.00  0.00    -0.017 A 
ATOM     14  C   UNL     1       1.343  -2.547  12.409  0.00  0.00    +0.012 A 
ATOM     15  C   UNL     1       1.265  -1.540  11.499  0.00  0.00    +0.046 A 
ATOM     16  C   UNL     1       1.113  -1.792  10.136  0.00  0.00    +0.126 A 
BRANCH  16  17
ATOM     17  O   UNL     1       1.044  -0.756   9.262  0.00  0.00    -0.506 OA
ATOM     18  H   UNL     1       0.147  -0.432   9.105  0.00  0.00    +0.292 HD
ENDBRANCH  16  17
ENDBRANCH   6   7
ENDBRANCH   3   5
BRANCH   1  19
ATOM     19  C   UNL     1       0.401  -1.910   3.670  0.00  0.00    +0.174 C 
BRANCH  19  20
ATOM     20  S   UNL     1       0.342  -0.343   2.759  0.00  0.00    -0.077 S 
BRANCH  20  26
ATOM     21  C   UNL     1       0.087   1.460  -0.000  0.00  0.00    +0.153 C 
ATOM     22  N   UNL     1       0.049  -0.004  -0.003  0.00  0.00    -0.305 N 
ATOM     23  C   UNL     1      -0.087  -0.831  -1.094  0.00  0.00    +0.166 A 
ATOM     24  N   UNL     1      -0.073  -2.065  -0.647  0.00  0.00    -0.128 NA
ATOM     25  N   UNL     1       0.060  -2.067   0.631  0.00  0.00    -0.122 NA
ATOM     26  C   UNL     1       0.145  -0.834   1.078  0.00  0.00    +0.192 A 
BRANCH  23  27
ATOM     27  C   UNL     1      -0.223  -0.408  -2.504  0.00  0.00    +0.033 A 
ATOM     28  C   UNL     1       0.646   0.544  -3.038  0.00  0.00    +0.013 A 
ATOM     29  C   UNL     1       0.514   0.934  -4.354  0.00  0.00    +0.001 A 
ATOM     30  C   UNL     1      -0.478   0.384  -5.146  0.00  0.00    +0.001 A 
ATOM     31  C   UNL     1      -1.344  -0.561  -4.625  0.00  0.00    +0.016 A 
ATOM     32  C   UNL     1      -1.218  -0.965  -3.310  0.00  0.00    +0.029 A 
ATOM     33 BR   UNL     1      -2.397  -2.262  -2.601  0.00  0.00    -0.050 Br
ENDBRANCH  23  27
ENDBRANCH  20  26
ENDBRANCH  19  20
ENDBRANCH   1  19
TORSDOF 7
