REMARK  Name = ZINC36187706
REMARK  9 active torsions:
REMARK  status: ('A' for Active; 'I' for Inactive)
REMARK    1  A    between atoms: C_1  and  C_2
REMARK    2  A    between atoms: C_2  and  O_3
REMARK    3  A    between atoms: O_3  and  C_4
REMARK    4  A    between atoms: C_6  and  N_30
REMARK    5  A    between atoms: C_8  and  C_11
REMARK    6  A    between atoms: C_9  and  O_10
REMARK    7  A    between atoms: C_11  and  N_12
REMARK    8  A    between atoms: N_12  and  C_13
REMARK    9  A    between atoms: C_20  and  C_22
REMARK                            x       y       z     vdW  Elec       q    Type
REMARK                         _______ _______ _______ _____ _____    ______ ____
ROOT
ATOM      1  N   UNL     1       3.673  -4.216  -3.624  0.00  0.00    -0.340 N 
ATOM      2  H   UNL     1       4.035  -3.855  -2.800  0.00  0.00    +0.146 HD
ENDROOT
BRANCH   1   3
ATOM      3  C   UNL     1       4.535  -4.689  -4.619  0.00  0.00    +0.030 A 
ATOM      4  C   UNL     1       4.013  -5.202  -5.804  0.00  0.00    +0.026 A 
ATOM      5  C   UNL     1       4.852  -5.671  -6.792  0.00  0.00    +0.050 A 
ATOM      6  C   UNL     1       6.226  -5.633  -6.610  0.00  0.00    +0.156 A 
ATOM      7  C   UNL     1       6.761  -5.118  -5.418  0.00  0.00    +0.112 A 
ATOM      8  C   UNL     1       5.904  -4.640  -4.424  0.00  0.00    +0.054 A 
ATOM      9  N   UNL     1       8.112  -5.209  -5.525  0.00  0.00    -0.209 NA
ATOM     10  C   UNL     1       8.408  -5.738  -6.685  0.00  0.00    +0.230 A 
ATOM     11  O   UNL     1       7.280  -6.008  -7.370  0.00  0.00    -0.435 OA
BRANCH  10  12
ATOM     12  C   UNL     1       9.778  -6.000  -7.172  0.00  0.00    +0.055 A 
ATOM     13  C   UNL     1      10.878  -5.684  -6.373  0.00  0.00    +0.016 A 
ATOM     14  C   UNL     1      12.154  -5.931  -6.833  0.00  0.00    +0.021 A 
ATOM     15  C   UNL     1      12.347  -6.491  -8.085  0.00  0.00    +0.042 A 
ATOM     16  C   UNL     1      11.261  -6.807  -8.883  0.00  0.00    +0.040 A 
ATOM     17  C   UNL     1       9.977  -6.570  -8.432  0.00  0.00    +0.055 A 
ATOM     18 CL   UNL     1       8.616  -6.973  -9.430  0.00  0.00    -0.083 Cl
ATOM     19 CL   UNL     1      13.957  -6.799  -8.655  0.00  0.00    -0.083 Cl
ENDBRANCH  10  12
ENDBRANCH   1   3
BRANCH   1  20
ATOM     20  C   UNL     1       2.223  -4.267  -3.827  0.00  0.00    +0.140 C 
BRANCH  20  25
ATOM     21  C   UNL     1       0.777  -1.811  -1.336  0.00  0.00    +0.164 A 
ATOM     22  C   UNL     1       0.243  -2.669  -0.388  0.00  0.00    +0.082 A 
ATOM     23  C   UNL     1       0.352  -4.037  -0.555  0.00  0.00    +0.130 A 
ATOM     24  C   UNL     1       0.992  -4.552  -1.667  0.00  0.00    +0.041 A 
ATOM     25  C   UNL     1       1.526  -3.702  -2.617  0.00  0.00    +0.017 A 
ATOM     26  C   UNL     1       1.416  -2.330  -2.458  0.00  0.00    +0.163 A 
BRANCH  23  27
ATOM     27  N   UNL     1      -0.219  -4.952   0.459  0.00  0.00    +0.057 N 
ATOM     28  O   UNL     1      -0.778  -4.503   1.432  0.00  0.00    -0.126 OA
ATOM     29  O   UNL     1      -0.125  -6.149   0.314  0.00  0.00    -0.126 OA
ENDBRANCH  23  27
BRANCH  26  30
ATOM     30  O   UNL     1       1.936  -1.492  -3.395  0.00  0.00    -0.503 OA
ATOM     31  H   UNL     1       2.856  -1.241  -3.231  0.00  0.00    +0.292 HD
ENDBRANCH  26  30
BRANCH  21  32
ATOM     32  O   UNL     1       0.671  -0.465  -1.174  0.00  0.00    -0.489 OA
BRANCH  32  34
ATOM     33  C   UNL     1      -0.019   1.526   0.010  0.00  0.00    +0.048 C 
ATOM     34  C   UNL     1       0.002  -0.004   0.002  0.00  0.00    +0.226 C 
ENDBRANCH  32  34
ENDBRANCH  21  32
ENDBRANCH  20  25
ENDBRANCH   1  20
TORSDOF 8
