REMARK  Name = ZINC13787431
REMARK  8 active torsions:
REMARK  status: ('A' for Active; 'I' for Inactive)
REMARK    1  A    between atoms: C_1  and  O_2
REMARK    2  A    between atoms: O_2  and  C_3
REMARK    3  A    between atoms: C_6  and  O_27
REMARK    4  A    between atoms: C_7  and  C_9
REMARK    5  A    between atoms: C_14  and  N_16
REMARK    6  A    between atoms: N_16  and  C_17
REMARK    7  A    between atoms: C_21  and  C_23
REMARK    8  A    between atoms: O_27  and  C_28
REMARK                            x       y       z     vdW  Elec       q    Type
REMARK                         _______ _______ _______ _____ _____    ______ ____
ROOT
ATOM      1  C   UNL     1       0.951  -4.048   2.469  0.00  0.00    +0.032 C 
ATOM      2  C   UNL     1       0.445  -4.806   1.463  0.00  0.00    +0.080 C 
ATOM      3  C   UNL     1       0.525  -6.269   1.244  0.00  0.00    +0.276 C 
ATOM      4  O   UNL     1       1.110  -7.005   2.023  0.00  0.00    -0.267 OA
ATOM      5  N   UNL     1      -0.069  -6.731   0.166  0.00  0.00    -0.152 NA
ATOM      6  C   UNL     1      -0.707  -5.943  -0.686  0.00  0.00    +0.175 C 
ATOM      7  S   UNL     1      -0.512  -4.320   0.032  0.00  0.00    -0.050 S 
ENDROOT
BRANCH   1  12
ATOM      8  C   UNL     1       0.525  -0.575   1.117  0.00  0.00    +0.121 A 
ATOM      9  C   UNL     1       0.722   0.186   2.264  0.00  0.00    +0.049 A 
ATOM     10  C   UNL     1       0.992  -0.427   3.472  0.00  0.00    +0.050 A 
ATOM     11  C   UNL     1       1.069  -1.808   3.550  0.00  0.00    +0.127 A 
ATOM     12  C   UNL     1       0.871  -2.584   2.397  0.00  0.00    +0.021 A 
ATOM     13  C   UNL     1       0.593  -1.954   1.178  0.00  0.00    +0.057 A 
BRANCH   8  15
ATOM     14  C   UNL     1       0.204   1.467  -0.059  0.00  0.00    +0.277 C 
ATOM     15  O   UNL     1       0.260   0.039  -0.067  0.00  0.00    -0.495 OA
ENDBRANCH   8  15
BRANCH  11  16
ATOM     16  O   UNL     1       1.335  -2.409   4.738  0.00  0.00    -0.495 OA
ATOM     17  C   UNL     1       1.526  -1.556   5.869  0.00  0.00    +0.277 C 
ENDBRANCH  11  16
ENDBRANCH   1  12
BRANCH   6  18
ATOM     18  N   UNL     1      -1.362  -6.291  -1.839  0.00  0.00    -0.192 NA
BRANCH  18  19
ATOM     19  C   UNL     1      -1.729  -7.622  -2.059  0.00  0.00    +0.056 A 
ATOM     20  C   UNL     1      -1.841  -8.500  -0.989  0.00  0.00    +0.025 A 
ATOM     21  C   UNL     1      -2.204  -9.814  -1.211  0.00  0.00    +0.002 A 
ATOM     22  C   UNL     1      -2.457 -10.255  -2.497  0.00  0.00    +0.012 A 
ATOM     23  C   UNL     1      -2.347  -9.384  -3.565  0.00  0.00    +0.057 A 
ATOM     24  C   UNL     1      -1.990  -8.067  -3.349  0.00  0.00    +0.037 A 
BRANCH  23  25
ATOM     25  C   UNL     1      -2.623  -9.869  -4.964  0.00  0.00    +0.417 C 
ATOM     26  F   UNL     1      -2.969 -11.224  -4.928  0.00  0.00    -0.166 F 
ATOM     27  F   UNL     1      -3.678  -9.133  -5.514  0.00  0.00    -0.166 F 
ATOM     28  F   UNL     1      -1.478  -9.701  -5.750  0.00  0.00    -0.166 F 
ENDBRANCH  23  25
ENDBRANCH  18  19
ENDBRANCH   6  18
TORSDOF 6
