REMARK  Name = ZINC13958207
REMARK  4 active torsions:
REMARK  status: ('A' for Active; 'I' for Inactive)
REMARK    1  A    between atoms: C_1  and  C_2
REMARK    2  A    between atoms: C_4  and  C_24
REMARK    3  A    between atoms: C_14  and  C_17
REMARK    4  A    between atoms: N_21  and  C_22
REMARK                            x       y       z     vdW  Elec       q    Type
REMARK                         _______ _______ _______ _____ _____    ______ ____
ROOT
ATOM      1  C   UNL     1       0.188  -4.026   0.955  0.00  0.00    +0.044 C 
ATOM      2  C   UNL     1      -1.128  -3.296   0.883  0.00  0.00    -0.037 A 
ATOM      3  C   UNL     1      -2.334  -3.932   1.117  0.00  0.00    +0.036 A 
ATOM      4  C   UNL     1      -3.543  -3.263   1.050  0.00  0.00    +0.145 A 
ATOM      5  N   UNL     1      -3.621  -1.970   0.759  0.00  0.00    -0.235 NA
ATOM      6  C   UNL     1      -2.500  -1.322   0.530  0.00  0.00    +0.112 A 
ATOM      7  C   UNL     1      -1.207  -1.914   0.569  0.00  0.00    +0.032 A 
ATOM      8  C   UNL     1      -0.096  -1.030   0.281  0.00  0.00    +0.058 A 
ATOM      9  C   UNL     1      -0.423   0.298   0.017  0.00  0.00    +0.097 A 
ATOM     10  S   UNL     1      -2.184   0.370   0.128  0.00  0.00    -0.062 S 
ATOM     11  C   UNL     1       0.524   1.300  -0.262  0.00  0.00    +0.254 C 
ATOM     12  O   UNL     1       0.207   2.402  -0.670  0.00  0.00    -0.270 OA
ATOM     13  N   UNL     1       1.820   0.947  -0.044  0.00  0.00    -0.287 N 
ATOM     14  C   UNL     1       2.128  -0.303   0.646  0.00  0.00    +0.209 C 
ATOM     15  N   UNL     1       1.257  -1.408   0.243  0.00  0.00    -0.319 N 
ATOM     16  H   UNL     1       2.538   1.525  -0.346  0.00  0.00    +0.151 HD
ATOM     17  H   UNL     1       1.510  -1.754  -0.670  0.00  0.00    +0.148 HD
ENDROOT
BRANCH  14  18
ATOM     18  C   UNL     1       3.557  -0.680   0.353  0.00  0.00    +0.091 A 
ATOM     19  C   UNL     1       4.098  -0.867  -0.874  0.00  0.00    +0.062 A 
ATOM     20  C   UNL     1       5.445  -1.202  -0.704  0.00  0.00    +0.150 A 
ATOM     21  N   UNL     1       5.702  -1.224   0.579  0.00  0.00    -0.178 NA
ATOM     22  N   UNL     1       4.526  -0.898   1.267  0.00  0.00    -0.267 N 
ATOM     23  C   UNL     1       4.375  -0.810   2.721  0.00  0.00    +0.172 C 
ATOM     24 BR   UNL     1       3.192  -0.701  -2.526  0.00  0.00    -0.047 Br
ENDBRANCH  14  18
BRANCH   4  25
ATOM     25  C   UNL     1      -4.814  -4.027   1.318  0.00  0.00    +0.434 C 
ATOM     26  F   UNL     1      -5.915  -3.196   1.088  0.00  0.00    -0.164 F 
ATOM     27  F   UNL     1      -4.880  -5.135   0.466  0.00  0.00    -0.164 F 
ATOM     28  F   UNL     1      -4.826  -4.460   2.648  0.00  0.00    -0.164 F 
ENDBRANCH   4  25
TORSDOF 2
