REMARK  Name = ZINC02376008
REMARK  6 active torsions:
REMARK  status: ('A' for Active; 'I' for Inactive)
REMARK    1  A    between atoms: C_4  and  C_7
REMARK    2  A    between atoms: C_7  and  C_8
REMARK    3  A    between atoms: C_8  and  N_9
REMARK    4  A    between atoms: C_10  and  N_32
REMARK    5  A    between atoms: C_11  and  S_22
REMARK    6  A    between atoms: S_22  and  C_25
REMARK                            x       y       z     vdW  Elec       q    Type
REMARK                         _______ _______ _______ _____ _____    ______ ____
ROOT
ATOM      1  N   UNL     1      -2.897   2.138   3.735  0.00  0.00    -0.311 N 
ATOM      2  C   UNL     1      -2.742   1.640   2.465  0.00  0.00    +0.126 A 
ATOM      3  C   UNL     1      -2.001   2.483   1.708  0.00  0.00    +0.160 A 
ATOM      4  C   UNL     1      -1.654   3.599   2.507  0.00  0.00    +0.135 A 
ATOM      5  C   UNL     1      -2.249   3.351   3.826  0.00  0.00    +0.163 A 
ATOM      6  N   UNL     1      -2.090   4.232   4.787  0.00  0.00    -0.226 NA
ATOM      7  C   UNL     1      -1.387   5.349   4.559  0.00  0.00    +0.092 A 
ATOM      8  C   UNL     1      -1.212   6.298   5.583  0.00  0.00    +0.030 A 
ATOM      9  C   UNL     1      -0.496   7.429   5.343  0.00  0.00    +0.002 A 
ATOM     10  C   UNL     1       0.070   7.668   4.092  0.00  0.00    +0.002 A 
ATOM     11  C   UNL     1      -0.077   6.774   3.077  0.00  0.00    +0.030 A 
ATOM     12  C   UNL     1      -0.811   5.591   3.287  0.00  0.00    +0.090 A 
ATOM     13  N   UNL     1      -0.961   4.706   2.295  0.00  0.00    -0.240 NA
ENDROOT
BRANCH   3  14
ATOM     14  S   UNL     1      -1.555   2.238   0.022  0.00  0.00    +0.030 S 
ATOM     15  O   UNL     1      -1.304   3.526  -0.523  0.00  0.00    -0.164 OA
ATOM     16  O   UNL     1      -2.519   1.352  -0.529  0.00  0.00    -0.164 OA
BRANCH  14  17
ATOM     17  C   UNL     1      -0.017   1.378   0.010  0.00  0.00    +0.094 A 
ATOM     18  C   UNL     1       1.171   2.086   0.002  0.00  0.00    +0.029 A 
ATOM     19  C   UNL     1       2.377   1.412  -0.013  0.00  0.00    +0.022 A 
ATOM     20  C   UNL     1       2.397   0.029  -0.021  0.00  0.00    +0.041 A 
ATOM     21  C   UNL     1       1.208  -0.679  -0.013  0.00  0.00    +0.022 A 
ATOM     22  C   UNL     1       0.002  -0.004   0.002  0.00  0.00    +0.029 A 
ATOM     23 CL   UNL     1       3.912  -0.818  -0.039  0.00  0.00    -0.084 Cl
ENDBRANCH  14  17
ENDBRANCH   3  14
BRANCH   2  24
ATOM     24  N   UNL     1      -3.268   0.440   2.021  0.00  0.00    -0.343 N 
ATOM     25  H   UNL     1      -3.113   0.151   1.108  0.00  0.00    +0.144 HD
ATOM     26  H   UNL     1      -3.790  -0.113   2.623  0.00  0.00    +0.144 HD
ENDBRANCH   2  24
BRANCH   1  27
ATOM     27  C   UNL     1      -3.637   1.486   4.818  0.00  0.00    +0.130 C 
BRANCH  27  28
ATOM     28  C   UNL     1      -5.100   1.933   4.778  0.00  0.00    +0.057 C 
BRANCH  28  32
ATOM     29  C   UNL     1      -7.259   0.034   7.937  0.00  0.00    +0.000 A 
ATOM     30  C   UNL     1      -6.650   1.256   8.153  0.00  0.00    +0.000 A 
ATOM     31  C   UNL     1      -5.951   1.871   7.131  0.00  0.00    +0.004 A 
ATOM     32  C   UNL     1      -5.861   1.263   5.892  0.00  0.00    -0.046 A 
ATOM     33  C   UNL     1      -6.475   0.044   5.675  0.00  0.00    +0.004 A 
ATOM     34  C   UNL     1      -7.169  -0.573   6.698  0.00  0.00    +0.000 A 
ENDBRANCH  28  32
ENDBRANCH  27  28
ENDBRANCH   1  27
TORSDOF 6
