REMARK  Name = ZINC22433395
REMARK  7 active torsions:
REMARK  status: ('A' for Active; 'I' for Inactive)
REMARK    1  A    between atoms: C_1  and  C_2
REMARK    2  A    between atoms: C_2  and  C_3
REMARK    3  A    between atoms: C_2  and  C_4
REMARK    4  A    between atoms: C_2  and  O_20
REMARK    5  A    between atoms: N_6  and  C_7
REMARK    6  A    between atoms: C_8  and  C_17
REMARK    7  A    between atoms: O_20  and  C_21
REMARK                            x       y       z     vdW  Elec       q    Type
REMARK                         _______ _______ _______ _____ _____    ______ ____
ROOT
ATOM      1  C   UNL     1      -0.133   1.244   0.361  0.00  0.00    +0.261 C 
ATOM      2  O   UNL     1       0.967   1.750   0.436  0.00  0.00    -0.271 OA
ATOM      3  N   UNL     1      -0.285  -0.075   0.592  0.00  0.00    -0.276 N 
ATOM      4  H   UNL     1      -1.283  -0.534   0.524  0.00  0.00    +0.155 HD
ENDROOT
BRANCH   3   5
ATOM      5  C   UNL     1       0.815  -0.854   0.917  0.00  0.00    +0.085 A 
ATOM      6  C   UNL     1       0.859  -2.211   1.193  0.00  0.00    +0.068 A 
ATOM      7  C   UNL     1       2.155  -2.799   1.503  0.00  0.00    -0.023 A 
ATOM      8  C   UNL     1       3.188  -1.929   1.503  0.00  0.00    -0.004 A 
ATOM      9  S   UNL     1       2.468  -0.365   1.084  0.00  0.00    -0.077 S 
ATOM     10  C   UNL     1       4.626  -2.217   1.804  0.00  0.00    +0.043 C 
ATOM     11  C   UNL     1       5.076  -3.445   1.002  0.00  0.00    +0.005 C 
ATOM     12  C   UNL     1       4.804  -4.692   1.837  0.00  0.00    +0.001 C 
ATOM     13  C   UNL     1       3.554  -4.490   2.692  0.00  0.00    +0.005 C 
ATOM     14  C   UNL     1       2.331  -4.282   1.805  0.00  0.00    +0.037 C 
BRANCH   6  15
ATOM     15  C   UNL     1      -0.358  -3.029   1.170  0.00  0.00    +0.244 C 
ATOM     16  O   UNL     1      -0.708  -3.572   0.139  0.00  0.00    -0.270 OA
ATOM     17  N   UNL     1      -1.090  -3.180   2.292  0.00  0.00    -0.325 N 
ATOM     18  H   UNL     1      -2.003  -3.793   2.275  0.00  0.00    +0.145 HD
ATOM     19  H   UNL     1      -0.774  -2.689   3.225  0.00  0.00    +0.145 HD
ENDBRANCH   6  15
ENDBRANCH   3   5
BRANCH   1  21
ATOM     20  C   UNL     1      -1.959   1.558  -1.287  0.00  0.00    +0.065 C 
ATOM     21  C   UNL     1      -1.328   2.089   0.002  0.00  0.00    +0.180 C 
ATOM     22  C   UNL     1      -2.354   2.029   1.135  0.00  0.00    +0.065 C 
BRANCH  21  23
ATOM     23  O   UNL     1      -0.913   3.442  -0.194  0.00  0.00    -0.477 OA
BRANCH  23  24
ATOM     24  C   UNL     1      -0.010   3.674  -1.183  0.00  0.00    +0.122 A 
ATOM     25  C   UNL     1       0.555   2.610  -1.871  0.00  0.00    +0.047 A 
ATOM     26  C   UNL     1       1.468   2.848  -2.880  0.00  0.00    +0.019 A 
ATOM     27  C   UNL     1       1.828   4.145  -3.197  0.00  0.00    +0.018 A 
ATOM     28  C   UNL     1       1.271   5.208  -2.508  0.00  0.00    +0.019 A 
ATOM     29  C   UNL     1       0.353   4.974  -1.502  0.00  0.00    +0.047 A 
ATOM     30 BR   UNL     1       3.083   4.468  -4.574  0.00  0.00    -0.050 Br
ENDBRANCH  23  24
ENDBRANCH  21  23
ENDBRANCH   1  21
TORSDOF 5
