REMARK  Name = ZINC61674807
REMARK  4 active torsions:
REMARK  status: ('A' for Active; 'I' for Inactive)
REMARK    1  A    between atoms: C_6  and  C_7
REMARK    2  A    between atoms: C_7  and  N_8
REMARK    3  A    between atoms: N_8  and  C_9
REMARK    4  A    between atoms: C_9  and  C_10
REMARK                            x       y       z     vdW  Elec       q    Type
REMARK                         _______ _______ _______ _____ _____    ______ ____
ROOT
ATOM      1  C   UNL     1      -1.294  -0.774   0.010  0.00  0.00    -0.046 C 
ENDROOT
BRANCH   1   7
ATOM      2  C   UNL     1      -0.017   1.378   0.010  0.00  0.00    +0.005 A 
ATOM      3  C   UNL     1       1.170   2.088   0.002  0.00  0.00    +0.050 A 
ATOM      4  C   UNL     1       2.380   1.416  -0.013  0.00  0.00    +0.166 A 
ATOM      5  C   UNL     1       2.399   0.023  -0.021  0.00  0.00    +0.166 A 
ATOM      6  C   UNL     1       1.207  -0.682  -0.014  0.00  0.00    +0.051 A 
ATOM      7  C   UNL     1       0.002  -0.004   0.002  0.00  0.00    -0.061 A 
ATOM      8  O   UNL     1       3.698  -0.395  -0.036  0.00  0.00    -0.453 OA
ATOM      9  C   UNL     1       4.466   0.750  -0.450  0.00  0.00    +0.466 C 
ATOM     10  O   UNL     1       3.668   1.870  -0.024  0.00  0.00    -0.453 OA
ENDBRANCH   1   7
BRANCH   1  11
ATOM     11  N   UNL     1      -1.728  -1.016  -1.372  0.00  0.00    +0.385 N 
ATOM     12  H   UNL     1      -1.864  -0.134  -1.842  0.00  0.00    -0.085 HD
ATOM     13  H   UNL     1      -1.022  -1.550  -1.857  0.00  0.00    -0.085 HD
BRANCH  11  14
ATOM     14  C   UNL     1      -2.991  -1.766  -1.364  0.00  0.00    -0.038 C 
BRANCH  14  15
ATOM     15  C   UNL     1      -3.436  -2.015  -2.782  0.00  0.00    -0.013 A 
ATOM     16  C   UNL     1      -3.155  -3.065  -3.594  0.00  0.00    +0.026 A 
ATOM     17  C   UNL     1      -3.680  -3.082  -4.873  0.00  0.00    +0.023 A 
ATOM     18  C   UNL     1      -4.460  -2.049  -5.277  0.00  0.00    +0.046 A 
ATOM     19  S   UNL     1      -4.477  -1.009  -3.826  0.00  0.00    -0.102 S 
ATOM     20 BR   UNL     1      -2.062  -4.482  -2.985  0.00  0.00    -0.050 Br
ENDBRANCH  14  15
ENDBRANCH  11  14
ENDBRANCH   1  11
TORSDOF 4
