REMARK  Name = ZINC39607728
REMARK  11 active torsions:
REMARK  status: ('A' for Active; 'I' for Inactive)
REMARK    1  A    between atoms: C_1  and  C_2
REMARK    2  A    between atoms: C_2  and  C_3
REMARK    3  A    between atoms: C_3  and  O_4
REMARK    4  A    between atoms: O_4  and  C_5
REMARK    5  A    between atoms: C_5  and  C_6
REMARK    6  A    between atoms: C_6  and  N_7
REMARK    7  A    between atoms: C_8  and  C_10
REMARK    8  A    between atoms: C_21  and  C_23
REMARK    9  A    between atoms: C_23  and  O_24
REMARK   10  A    between atoms: O_24  and  C_25
REMARK   11  A    between atoms: C_35  and  C_36
REMARK                            x       y       z     vdW  Elec       q    Type
REMARK                         _______ _______ _______ _____ _____    ______ ____
ROOT
ATOM      1  C   UNL     1       3.055  -6.213  -0.437  0.00  0.00    +0.100 C 
ATOM      2  C   UNL     1       2.348  -5.764  -1.735  0.00  0.00    +0.121 C 
ATOM      3  N   UNL     1       2.566  -6.880  -2.686  0.00  0.00    -0.297 N 
ATOM      4  C   UNL     1       2.420  -8.102  -1.859  0.00  0.00    +0.115 C 
ATOM      5  C   UNL     1       3.100  -7.748  -0.522  0.00  0.00    -0.004 C 
ATOM      6  C   UNL     1       2.329  -8.364   0.641  0.00  0.00    -0.010 C 
ATOM      7  C   UNL     1       2.437  -9.890   0.568  0.00  0.00    -0.082 C 
ATOM      8  N   UNL     1       3.849 -10.286   0.627  0.00  0.00    +0.379 N 
ATOM      9  C   UNL     1       4.564  -9.766  -0.545  0.00  0.00    -0.082 C 
ATOM     10  C   UNL     1       4.546  -8.236  -0.519  0.00  0.00    -0.010 C 
ATOM     11  C   UNL     1       2.837  -6.802  -4.004  0.00  0.00    +0.253 C 
ATOM     12  O   UNL     1       2.990  -7.815  -4.653  0.00  0.00    -0.272 OA
ATOM     13  H   UNL     1       4.267  -9.913   1.466  0.00  0.00    -0.086 HD
ATOM     14  H   UNL     1       3.914 -11.293   0.640  0.00  0.00    -0.086 HD
ENDROOT
BRANCH   1  16
ATOM     15  N   UNL     1       2.895  -5.530   1.935  0.00  0.00    -0.313 N 
ATOM     16  C   UNL     1       2.265  -5.777   0.769  0.00  0.00    +0.218 C 
ATOM     17  O   UNL     1       1.061  -5.649   0.692  0.00  0.00    -0.275 OA
ATOM     18  H   UNL     1       3.858  -5.633   1.997  0.00  0.00    +0.149 HD
BRANCH  15  19
ATOM     19  C   UNL     1       2.126  -5.106   3.108  0.00  0.00    +0.132 C 
BRANCH  19  20
ATOM     20  C   UNL     1       3.075  -4.894   4.290  0.00  0.00    +0.178 C 
BRANCH  20  21
ATOM     21  O   UNL     1       3.957  -3.808   4.003  0.00  0.00    -0.378 OA
BRANCH  21  22
ATOM     22  C   UNL     1       4.889  -3.525   5.049  0.00  0.00    +0.159 C 
BRANCH  22  24
ATOM     23  C   UNL     1       6.777  -2.048   5.755  0.00  0.00    +0.006 C 
ATOM     24  C   UNL     1       5.779  -2.350   4.635  0.00  0.00    +0.025 C 
ENDBRANCH  22  24
ENDBRANCH  21  22
ENDBRANCH  20  21
ENDBRANCH  19  20
ENDBRANCH  15  19
ENDBRANCH   1  16
BRANCH  11  25
ATOM     25  C   UNL     1       2.948  -5.455  -4.671  0.00  0.00    +0.324 C 
BRANCH  25  26
ATOM     26  O   UNL     1       3.239  -5.634  -6.059  0.00  0.00    -0.479 OA
BRANCH  26  27
ATOM     27  C   UNL     1       3.372  -4.509  -6.811  0.00  0.00    +0.164 A 
ATOM     28  C   UNL     1       3.233  -3.264  -6.226  0.00  0.00    +0.049 A 
ATOM     29  C   UNL     1       3.367  -2.109  -6.984  0.00  0.00    +0.004 A 
ATOM     30  C   UNL     1       3.641  -2.187  -8.330  0.00  0.00    +0.012 A 
ATOM     31  C   UNL     1       3.785  -3.439  -8.938  0.00  0.00    +0.024 A 
ATOM     32  C   UNL     1       3.655  -4.609  -8.172  0.00  0.00    +0.181 A 
ATOM     33  O   UNL     1       3.800  -5.817  -8.760  0.00  0.00    -0.418 OA
ATOM     34  C   UNL     1       4.072  -5.931 -10.069  0.00  0.00    +0.338 A 
ATOM     35  O   UNL     1       4.193  -7.041 -10.555  0.00  0.00    -0.245 OA
ATOM     36  C   UNL     1       4.221  -4.797 -10.896  0.00  0.00    +0.096 A 
ATOM     37  C   UNL     1       4.077  -3.554 -10.370  0.00  0.00    -0.033 A 
ATOM     38  C   UNL     1       4.231  -2.327 -11.230  0.00  0.00    +0.045 C 
ENDBRANCH  26  27
ENDBRANCH  25  26
ENDBRANCH  11  25
TORSDOF 9
