REMARK  Name = ZINC20867648
REMARK  9 active torsions:
REMARK  status: ('A' for Active; 'I' for Inactive)
REMARK    1  A    between atoms: C_1  and  C_2
REMARK    2  A    between atoms: C_2  and  N_3
REMARK    3  A    between atoms: N_3  and  C_4
REMARK    4  A    between atoms: N_3  and  C_6
REMARK    5  A    between atoms: C_4  and  C_5
REMARK    6  A    between atoms: C_9  and  N_13
REMARK    7  A    between atoms: C_10  and  C_12
REMARK    8  A    between atoms: C_14  and  C_16
REMARK    9  A    between atoms: C_21  and  C_32
REMARK                            x       y       z     vdW  Elec       q    Type
REMARK                         _______ _______ _______ _____ _____    ______ ____
ROOT
ATOM      1  N   UNL     1       1.389   1.592   2.430  0.00  0.00    -0.285 N 
ATOM      2  C   UNL     1       2.105   1.915   3.526  0.00  0.00    +0.230 C 
ATOM      3  O   UNL     1       1.541   2.306   4.525  0.00  0.00    -0.275 OA
ATOM      4  H   UNL     1       1.892   1.167   1.549  0.00  0.00    +0.155 HD
ENDROOT
BRANCH   2   5
ATOM      5  C   UNL     1       3.607   1.789   3.508  0.00  0.00    +0.169 C 
ATOM      6  C   UNL     1       4.171   2.217   4.868  0.00  0.00    +0.049 C 
ATOM      7  C   UNL     1       3.779   1.149   5.898  0.00  0.00    +0.078 C 
ATOM      8  C   UNL     1       4.586  -0.115   5.578  0.00  0.00    +0.176 C 
ATOM      9  N   UNL     1       4.412  -0.479   4.177  0.00  0.00    -0.278 N 
ATOM     10  C   UNL     1       3.987   0.362   3.233  0.00  0.00    +0.228 C 
ATOM     11  O   UNL     1       3.903  -0.046   2.094  0.00  0.00    -0.275 OA
ATOM     12  O   UNL     1       5.967   0.169   5.828  0.00  0.00    -0.468 OA
ATOM     13  C   UNL     1       6.485   1.285   5.252  0.00  0.00    +0.127 A 
ATOM     14  C   UNL     1       5.673   2.299   4.774  0.00  0.00    -0.001 A 
ATOM     15  C   UNL     1       6.244   3.421   4.195  0.00  0.00    +0.007 A 
ATOM     16  C   UNL     1       7.617   3.530   4.091  0.00  0.00    +0.001 A 
ATOM     17  C   UNL     1       8.429   2.518   4.567  0.00  0.00    +0.004 A 
ATOM     18  C   UNL     1       7.867   1.398   5.146  0.00  0.00    +0.046 A 
ATOM     19  C   UNL     1       4.115  -1.266   6.470  0.00  0.00    +0.078 C 
ATOM     20  H   UNL     1       4.636  -1.503   3.842  0.00  0.00    +0.152 HD
ENDBRANCH   2   5
BRANCH   1  24
ATOM     21  C   UNL     1      -2.737   2.202   2.382  0.00  0.00    +0.030 A 
ATOM     22  C   UNL     1      -2.104   1.826   3.560  0.00  0.00    +0.025 A 
ATOM     23  C   UNL     1      -0.739   1.624   3.576  0.00  0.00    +0.025 A 
ATOM     24  C   UNL     1       0.002   1.797   2.414  0.00  0.00    +0.036 A 
ATOM     25  C   UNL     1      -0.630   2.172   1.237  0.00  0.00    -0.028 A 
ATOM     26  C   UNL     1      -1.995   2.379   1.222  0.00  0.00    +0.028 A 
ATOM     27  C   UNL     1       0.174   2.358  -0.024  0.00  0.00    +0.046 C 
BRANCH  21  28
ATOM     28  N   UNL     1      -4.121   2.407   2.366  0.00  0.00    -0.330 N 
BRANCH  28  30
ATOM     29  C   UNL     1      -4.973   3.551   4.353  0.00  0.00    +0.024 C 
ATOM     30  C   UNL     1      -4.902   2.226   3.592  0.00  0.00    +0.102 C 
ENDBRANCH  28  30
BRANCH  28  31
ATOM     31  C   UNL     1      -4.788   2.803   1.124  0.00  0.00    +0.102 C 
ATOM     32  C   UNL     1      -5.222   1.552   0.357  0.00  0.00    +0.024 C 
ENDBRANCH  28  31
ENDBRANCH  21  28
ENDBRANCH   1  24
TORSDOF 5
