REMARK  Name = ZINC04937426
REMARK  14 active torsions:
REMARK  status: ('A' for Active; 'I' for Inactive)
REMARK    1  A    between atoms: C_1  and  C_2
REMARK    2  A    between atoms: C_2  and  O_3
REMARK    3  A    between atoms: O_3  and  C_4
REMARK    4  A    between atoms: C_6  and  C_26
REMARK    5  A    between atoms: C_7  and  O_23
REMARK    6  A    between atoms: C_9  and  S_10
REMARK    7  A    between atoms: S_10  and  N_13
REMARK    8  A    between atoms: N_13  and  C_14
REMARK    9  A    between atoms: C_16  and  C_21
REMARK   10  A    between atoms: C_16  and  C_22
REMARK   11  A    between atoms: C_17  and  C_19
REMARK   12  A    between atoms: C_17  and  C_20
REMARK   13  A    between atoms: O_23  and  C_24
REMARK   14  A    between atoms: C_24  and  C_25
REMARK                            x       y       z     vdW  Elec       q    Type
REMARK                         _______ _______ _______ _____ _____    ______ ____
ROOT
ATOM      1  S   UNL     1       1.111   4.711  -4.098  0.00  0.00    +0.062 S 
ATOM      2  O   UNL     1       1.723   4.882  -5.369  0.00  0.00    -0.153 OA
ATOM      3  O   UNL     1      -0.286   4.875  -3.897  0.00  0.00    -0.153 OA
ENDROOT
BRANCH   1   9
ATOM      4  C   UNL     1       3.297   5.873  -2.940  0.00  0.00    +0.147 A 
ATOM      5  C   UNL     1       3.928   6.757  -2.077  0.00  0.00    +0.054 A 
ATOM      6  C   UNL     1       3.177   7.587  -1.268  0.00  0.00    -0.005 A 
ATOM      7  C   UNL     1       1.792   7.540  -1.322  0.00  0.00    +0.125 A 
ATOM      8  C   UNL     1       1.161   6.660  -2.188  0.00  0.00    +0.078 A 
ATOM      9  C   UNL     1       1.912   5.830  -2.998  0.00  0.00    +0.150 A 
ATOM     10  C   UNL     1       3.862   8.544  -0.327  0.00  0.00    +0.047 C 
BRANCH   4  11
ATOM     11  O   UNL     1       4.037   5.052  -3.733  0.00  0.00    -0.490 OA
BRANCH  11  13
ATOM     12  C   UNL     1       6.115   4.136  -4.558  0.00  0.00    +0.048 C 
ATOM     13  C   UNL     1       5.453   5.072  -3.545  0.00  0.00    +0.226 C 
ENDBRANCH  11  13
ENDBRANCH   4  11
BRANCH   7  14
ATOM     14  O   UNL     1       1.052   8.357  -0.526  0.00  0.00    -0.492 OA
BRANCH  14  15
ATOM     15  C   UNL     1      -0.369   8.256  -0.634  0.00  0.00    +0.225 C 
ATOM     16  C   UNL     1      -1.026   9.245   0.331  0.00  0.00    +0.048 C 
ENDBRANCH  14  15
ENDBRANCH   7  14
ENDBRANCH   1   9
BRANCH   1  17
ATOM     17  N   UNL     1       1.484   3.178  -3.595  0.00  0.00    -0.187 NA
ATOM     18  H   UNL     1       2.006   2.593  -4.168  0.00  0.00    +0.148 HD
BRANCH  17  19
ATOM     19  C   UNL     1       1.026   2.703  -2.283  0.00  0.00    +0.074 C 
ATOM     20  C   UNL     1       2.097   1.799  -1.674  0.00  0.00    +0.007 C 
ATOM     21  C   UNL     1       1.638   1.273  -0.316  0.00  0.00    -0.072 C 
ATOM     22  C   UNL     1      -0.742   1.362  -1.114  0.00  0.00    -0.072 C 
ATOM     23  C   UNL     1      -0.254   1.888  -2.462  0.00  0.00    +0.007 C 
ATOM     24  C   UNL     1      -1.850   0.323  -1.395  0.00  0.00    -0.010 C 
ATOM     25  C   UNL     1      -1.383   2.505  -0.319  0.00  0.00    -0.010 C 
ATOM     26  C   UNL     1       1.744   2.390   0.729  0.00  0.00    -0.010 C 
ATOM     27  C   UNL     1       2.618   0.157   0.107  0.00  0.00    -0.010 C 
ATOM     28  N   UNL     1       0.287   0.649  -0.310  0.00  0.00    +0.386 N 
ATOM     29  H   UNL     1      -0.041   0.610   0.662  0.00  0.00    -0.084 HD
ATOM     30  H   UNL     1       0.376  -0.304  -0.680  0.00  0.00    -0.084 HD
ENDBRANCH  17  19
ENDBRANCH   1  17
TORSDOF 7
