REMARK  Name = ZINC24467820
REMARK  3 active torsions:
REMARK  status: ('A' for Active; 'I' for Inactive)
REMARK    1  A    between atoms: C_11  and  C_13
REMARK    2  A    between atoms: C_13  and  C_14
REMARK    3  A    between atoms: C_14  and  N_15
REMARK                            x       y       z     vdW  Elec       q    Type
REMARK                         _______ _______ _______ _____ _____    ______ ____
ROOT
ATOM      1  C   UNL     1      -0.001  -0.002   0.027  0.00  0.00    +0.135 C 
ENDROOT
BRANCH   1   2
ATOM      2  N   UNL     1      -1.376  -0.506   0.069  0.00  0.00    -0.298 N 
ATOM      3  C   UNL     1      -1.958  -0.752   1.270  0.00  0.00    +0.203 A 
ATOM      4  N   UNL     1      -3.183  -1.198   1.349  0.00  0.00    -0.230 NA
ATOM      5  C   UNL     1      -3.896  -1.436   0.252  0.00  0.00    +0.116 A 
ATOM      6  C   UNL     1      -3.378  -1.218  -1.034  0.00  0.00    +0.076 A 
ATOM      7  C   UNL     1      -2.034  -0.723  -1.086  0.00  0.00    +0.262 A 
ATOM      8  O   UNL     1      -1.495  -0.501  -2.157  0.00  0.00    -0.267 OA
ATOM      9  C   UNL     1      -4.276  -1.523  -2.147  0.00  0.00    -0.023 A 
ATOM     10  C   UNL     1      -5.506  -1.981  -1.833  0.00  0.00    -0.004 A 
ATOM     11  S   UNL     1      -5.539  -2.032  -0.061  0.00  0.00    -0.073 S 
ATOM     12  C   UNL     1      -6.602  -2.363  -2.780  0.00  0.00    +0.043 C 
ATOM     13  C   UNL     1      -6.257  -1.806  -4.169  0.00  0.00    +0.005 C 
ATOM     14  C   UNL     1      -4.802  -2.156  -4.491  0.00  0.00    +0.005 C 
ATOM     15  C   UNL     1      -3.862  -1.339  -3.604  0.00  0.00    +0.037 C 
ENDBRANCH   1   2
BRANCH   1  16
ATOM     16  C   UNL     1      -0.019   1.528   0.042  0.00  0.00    +0.118 C 
BRANCH  16  27
ATOM     17  C   UNL     1       5.531   4.787  -0.419  0.00  0.00    +0.000 A 
ATOM     18  C   UNL     1       5.295   3.477  -0.044  0.00  0.00    +0.002 A 
ATOM     19  C   UNL     1       3.999   3.013   0.062  0.00  0.00    +0.024 A 
ATOM     20  C   UNL     1       2.932   3.863  -0.207  0.00  0.00    +0.039 A 
ATOM     21  C   UNL     1       3.167   5.177  -0.585  0.00  0.00    -0.026 A 
ATOM     22  C   UNL     1       4.470   5.633  -0.696  0.00  0.00    +0.005 A 
ATOM     23  C   UNL     1       2.035   6.128  -0.873  0.00  0.00    +0.038 C 
ATOM     24  C   UNL     1       0.755   5.356  -1.193  0.00  0.00    +0.024 C 
ATOM     25  C   UNL     1       0.507   4.326  -0.083  0.00  0.00    +0.114 C 
ATOM     26  N   UNL     1       1.624   3.372  -0.097  0.00  0.00    -0.271 N 
ATOM     27  C   UNL     1       1.395   2.047  -0.000  0.00  0.00    +0.221 C 
ATOM     28  O   UNL     1       2.327   1.273   0.053  0.00  0.00    -0.275 OA
ENDBRANCH  16  27
ENDBRANCH   1  16
TORSDOF 3
