REMARK  Name = ZINC63049884
REMARK  5 active torsions:
REMARK  status: ('A' for Active; 'I' for Inactive)
REMARK    1  A    between atoms: C_1  and  C_2
REMARK    2  A    between atoms: N_7  and  C_9
REMARK    3  A    between atoms: C_9  and  C_10
REMARK    4  A    between atoms: C_10  and  C_12
REMARK    5  A    between atoms: C_10  and  N_22
REMARK                            x       y       z     vdW  Elec       q    Type
REMARK                         _______ _______ _______ _____ _____    ______ ____
ROOT
ATOM      1  C   UNL     1       1.501  -3.071   2.809  0.00  0.00    -0.049 C 
ENDROOT
BRANCH   1   2
ATOM      2  C   UNL     1       1.522  -3.975   4.044  0.00  0.00    -0.040 C 
ATOM      3  C   UNL     1       0.854  -5.310   3.709  0.00  0.00    +0.009 C 
ATOM      4  C   UNL     1       0.874  -6.214   4.943  0.00  0.00    -0.010 C 
ATOM      5  C   UNL     1       2.322  -6.461   5.370  0.00  0.00    +0.007 C 
ATOM      6  C   UNL     1       2.990  -5.126   5.705  0.00  0.00    -0.010 C 
ATOM      7  C   UNL     1       2.970  -4.222   4.471  0.00  0.00    +0.009 C 
ATOM      8  C   UNL     1       2.230  -4.448   6.847  0.00  0.00    +0.007 C 
ATOM      9  C   UNL     1       0.782  -4.201   6.419  0.00  0.00    -0.010 C 
ATOM     10  C   UNL     1       0.114  -5.536   6.084  0.00  0.00    +0.007 C 
ATOM     11  C   UNL     1       0.761  -3.297   5.185  0.00  0.00    +0.009 C 
ENDBRANCH   1   2
BRANCH   1  12
ATOM     12  N   UNL     1       2.231  -3.722   1.714  0.00  0.00    +0.381 N 
ATOM     13  H   UNL     1       1.791  -4.602   1.492  0.00  0.00    -0.090 HD
ATOM     14  H   UNL     1       2.218  -3.125   0.900  0.00  0.00    -0.090 HD
ATOM     15  H   UNL     1       3.186  -3.885   1.995  0.00  0.00    -0.090 HD
ENDBRANCH   1  12
BRANCH   1  16
ATOM     16  C   UNL     1       0.053  -2.824   2.382  0.00  0.00    +0.111 C 
BRANCH  16  23
ATOM     17  C   UNL     1      -0.018   1.503   0.010  0.00  0.00    +0.047 C 
ATOM     18  C   UNL     1       0.002  -0.004   0.002  0.00  0.00    -0.016 A 
ATOM     19  C   UNL     1       0.006  -0.706  -1.207  0.00  0.00    +0.121 A 
ATOM     20  N   UNL     1       0.024  -2.024  -1.200  0.00  0.00    -0.201 NA
ATOM     21  C   UNL     1       0.039  -2.701  -0.049  0.00  0.00    +0.348 A 
ATOM     22  O   UNL     1       0.056  -3.920  -0.070  0.00  0.00    -0.245 OA
ATOM     23  N   UNL     1       0.037  -2.058   1.133  0.00  0.00    -0.300 N 
ATOM     24  C   UNL     1       0.023  -0.700   1.171  0.00  0.00    +0.095 A 
ENDBRANCH  16  23
ENDBRANCH   1  16
TORSDOF 4
