REMARK  Name = ZINC24347818
REMARK  13 active torsions:
REMARK  status: ('A' for Active; 'I' for Inactive)
REMARK    1  A    between atoms: C_1  and  N_2
REMARK    2  A    between atoms: N_2  and  C_3
REMARK    3  A    between atoms: N_2  and  C_4
REMARK    4  A    between atoms: C_4  and  C_6
REMARK    5  A    between atoms: C_4  and  C_28
REMARK    6  A    between atoms: C_6  and  N_7
REMARK    7  A    between atoms: C_8  and  C_10
REMARK    8  A    between atoms: C_10  and  C_11
REMARK    9  A    between atoms: C_11  and  S_12
REMARK   10  A    between atoms: S_12  and  C_13
REMARK   11  A    between atoms: C_13  and  C_14
REMARK   12  A    between atoms: C_31  and  O_34
REMARK   13  A    between atoms: O_34  and  C_35
REMARK                            x       y       z     vdW  Elec       q    Type
REMARK                         _______ _______ _______ _____ _____    ______ ____
ROOT
ATOM      1  N   UNL     1       0.205  -2.151   0.753  0.00  0.00    -0.317 N 
ATOM      2  C   UNL     1       0.641  -3.422   0.864  0.00  0.00    +0.214 C 
ATOM      3  O   UNL     1       0.254  -4.266   0.085  0.00  0.00    -0.276 OA
ATOM      4  H   UNL     1       0.515  -1.476   1.377  0.00  0.00    +0.149 HD
ENDROOT
BRANCH   1   5
ATOM      5  C   UNL     1      -0.737  -1.791  -0.309  0.00  0.00    +0.093 C 
BRANCH   5   6
ATOM      6  C   UNL     1      -1.168  -0.333  -0.135  0.00  0.00    -0.021 C 
BRANCH   6   7
ATOM      7  C   UNL     1      -1.944  -0.188   1.148  0.00  0.00    -0.059 A 
ATOM      8  C   UNL     1      -3.276  -0.557   1.194  0.00  0.00    +0.005 A 
ATOM      9  C   UNL     1      -3.991  -0.425   2.369  0.00  0.00    +0.046 A 
ATOM     10  C   UNL     1      -3.370   0.078   3.503  0.00  0.00    +0.120 A 
ATOM     11  C   UNL     1      -2.034   0.447   3.455  0.00  0.00    +0.046 A 
ATOM     12  C   UNL     1      -1.323   0.308   2.279  0.00  0.00    +0.005 A 
BRANCH  10  13
ATOM     13  O   UNL     1      -4.071   0.210   4.660  0.00  0.00    -0.495 OA
ATOM     14  C   UNL     1      -3.368   0.735   5.788  0.00  0.00    +0.277 C 
ENDBRANCH  10  13
ENDBRANCH   6   7
BRANCH   6  16
ATOM     15  C   UNL     1      -2.469   1.450  -1.076  0.00  0.00    -0.096 C 
ATOM     16  N   UNL     1      -2.014   0.066  -1.268  0.00  0.00    +0.382 N 
ATOM     17  C   UNL     1      -1.242  -0.027  -2.514  0.00  0.00    -0.096 C 
ATOM     18  H   UNL     1      -2.814  -0.547  -1.322  0.00  0.00    -0.082 HD
ENDBRANCH   6  16
ENDBRANCH   5   6
ENDBRANCH   1   5
BRANCH   2  19
ATOM     19  C   UNL     1       1.611  -3.793   1.957  0.00  0.00    +0.106 C 
BRANCH  19  20
ATOM     20  C   UNL     1       1.942  -5.283   1.860  0.00  0.00    +0.079 C 
BRANCH  20  21
ATOM     21  S   UNL     1       3.109  -5.730   3.176  0.00  0.00    -0.153 S 
BRANCH  21  22
ATOM     22  C   UNL     1       3.395  -7.503   2.925  0.00  0.00    +0.143 C 
BRANCH  22  23
ATOM     23  C   UNL     1       4.360  -8.008   3.966  0.00  0.00    +0.121 A 
ATOM     24  N   UNL     1       4.721  -9.318   3.960  0.00  0.00    -0.310 N 
ATOM     25  H   UNL     1       4.353  -9.909   3.285  0.00  0.00    +0.170 HD
ATOM     26  C   UNL     1       5.581  -9.811   4.872  0.00  0.00    +0.260 A 
ATOM     27  O   UNL     1       5.896 -10.988   4.855  0.00  0.00    -0.267 OA
ATOM     28  C   UNL     1       6.117  -8.926   5.863  0.00  0.00    +0.075 A 
ATOM     29  C   UNL     1       7.061  -9.242   6.945  0.00  0.00    -0.023 A 
ATOM     30  C   UNL     1       7.418  -8.230   7.755  0.00  0.00    -0.004 A 
ATOM     31  S   UNL     1       6.536  -6.815   7.137  0.00  0.00    -0.073 S 
ATOM     32  C   UNL     1       5.687  -7.594   5.790  0.00  0.00    +0.116 A 
ATOM     33  N   UNL     1       4.838  -7.178   4.854  0.00  0.00    -0.226 NA
ATOM     34  C   UNL     1       8.381  -8.671   8.825  0.00  0.00    +0.043 C 
ATOM     35  C   UNL     1       8.258 -10.210   8.847  0.00  0.00    +0.010 C 
ATOM     36  C   UNL     1       7.788 -10.507   7.409  0.00  0.00    +0.037 C 
ENDBRANCH  22  23
ENDBRANCH  21  22
ENDBRANCH  20  21
ENDBRANCH  19  20
ENDBRANCH   2  19
TORSDOF 10
