REMARK  Name = ZINC15935940
REMARK  5 active torsions:
REMARK  status: ('A' for Active; 'I' for Inactive)
REMARK    1  A    between atoms: C_6  and  N_7
REMARK    2  A    between atoms: N_7  and  C_8
REMARK    3  A    between atoms: C_8  and  C_9
REMARK    4  A    between atoms: N_11  and  C_12
REMARK    5  A    between atoms: C_18  and  C_20
REMARK                            x       y       z     vdW  Elec       q    Type
REMARK                         _______ _______ _______ _____ _____    ______ ____
ROOT
ATOM      1  N   UNL     1      -1.244  -0.719   0.003  0.00  0.00    -0.257 N 
ATOM      2  C   UNL     1      -2.353   0.033   0.152  0.00  0.00    +0.272 C 
ATOM      3  O   UNL     1      -2.268   1.246   0.162  0.00  0.00    -0.268 OA
ENDROOT
BRANCH   1   9
ATOM      4  C   UNL     1       0.119   1.274  -0.036  0.00  0.00    +0.024 A 
ATOM      5  C   UNL     1       1.364   1.871  -0.056  0.00  0.00    +0.017 A 
ATOM      6  C   UNL     1       2.507   1.092  -0.059  0.00  0.00    +0.018 A 
ATOM      7  C   UNL     1       2.407  -0.288  -0.042  0.00  0.00    +0.017 A 
ATOM      8  C   UNL     1       1.165  -0.891  -0.021  0.00  0.00    +0.024 A 
ATOM      9  C   UNL     1       0.015  -0.111  -0.018  0.00  0.00    +0.037 A 
ATOM     10 BR   UNL     1       4.210   1.914  -0.088  0.00  0.00    -0.050 Br
ENDBRANCH   1   9
BRANCH   2  11
ATOM     11  C   UNL     1      -3.668  -0.616   0.302  0.00  0.00    +0.157 A 
ATOM     12  C   UNL     1      -4.833   0.093   0.543  0.00  0.00    +0.101 A 
ATOM     13  S   UNL     1      -5.976  -1.135   0.618  0.00  0.00    +0.029 S 
ATOM     14  N   UNL     1      -5.021  -2.414   0.362  0.00  0.00    -0.110 NA
ATOM     15  N   UNL     1      -3.840  -1.929   0.212  0.00  0.00    -0.136 NA
ENDBRANCH   2  11
BRANCH   1  16
ATOM     16  C   UNL     1      -1.358  -2.173  -0.137  0.00  0.00    +0.209 C 
BRANCH  16  17
ATOM     17  C   UNL     1      -1.453  -2.803   1.228  0.00  0.00    +0.231 C 
ATOM     18  O   UNL     1      -1.428  -2.106   2.221  0.00  0.00    -0.274 OA
ATOM     19  N   UNL     1      -1.566  -4.141   1.347  0.00  0.00    -0.311 N 
ATOM     20  H   UNL     1      -1.586  -4.698   0.553  0.00  0.00    +0.149 HD
BRANCH  19  21
ATOM     21  C   UNL     1      -1.658  -4.753   2.675  0.00  0.00    +0.073 C 
ATOM     22  C   UNL     1      -0.251  -4.970   3.235  0.00  0.00    +0.022 C 
ATOM     23  C   UNL     1      -0.347  -5.609   4.622  0.00  0.00    +0.002 C 
ATOM     24  C   UNL     1      -1.065  -6.956   4.513  0.00  0.00    +0.000 C 
ATOM     25  C   UNL     1      -2.473  -6.740   3.953  0.00  0.00    +0.002 C 
ATOM     26  C   UNL     1      -2.376  -6.100   2.566  0.00  0.00    +0.022 C 
ENDBRANCH  19  21
ENDBRANCH  16  17
ENDBRANCH   1  16
TORSDOF 5
