REMARK  Name = ZINC58449937
REMARK  6 active torsions:
REMARK  status: ('A' for Active; 'I' for Inactive)
REMARK    1  A    between atoms: C_1  and  C_2
REMARK    2  A    between atoms: C_4  and  C_29
REMARK    3  A    between atoms: C_9  and  S_11
REMARK    4  A    between atoms: S_11  and  C_12
REMARK    5  A    between atoms: C_12  and  C_13
REMARK    6  A    between atoms: C_23  and  C_27
REMARK                            x       y       z     vdW  Elec       q    Type
REMARK                         _______ _______ _______ _____ _____    ______ ____
ROOT
ATOM      1  C   UNL     1       5.234  -6.230  -0.068  0.00  0.00    +0.143 A 
ATOM      2  N   UNL     1       5.650  -6.736   1.079  0.00  0.00    -0.216 NA
ATOM      3  C   UNL     1       6.620  -7.633   1.144  0.00  0.00    +0.128 A 
ATOM      4  C   UNL     1       7.240  -8.071  -0.060  0.00  0.00    +0.051 A 
ATOM      5  C   UNL     1       8.321  -9.042  -0.234  0.00  0.00    -0.025 A 
ATOM      6  C   UNL     1       8.731  -9.281  -1.496  0.00  0.00    -0.004 A 
ATOM      7  S   UNL     1       7.717  -8.245  -2.516  0.00  0.00    -0.073 S 
ATOM      8  C   UNL     1       6.742  -7.487  -1.242  0.00  0.00    +0.114 A 
ATOM      9  N   UNL     1       5.766  -6.601  -1.217  0.00  0.00    -0.224 NA
ATOM     10  C   UNL     1       9.811 -10.222  -1.936  0.00  0.00    +0.046 C 
ATOM     11  C   UNL     1      10.649 -10.607  -0.709  0.00  0.00    -0.009 C 
ATOM     12  C   UNL     1       9.701 -11.000   0.428  0.00  0.00    +0.008 C 
ATOM     13  C   UNL     1       8.970  -9.761   0.946  0.00  0.00    +0.037 C 
ATOM     14  C   UNL     1      11.556 -11.788  -1.056  0.00  0.00    +0.008 C 
ATOM     15  N   UNL     1       7.027  -8.139   2.365  0.00  0.00    -0.343 N 
ATOM     16  H   UNL     1       6.467  -8.022   3.149  0.00  0.00    +0.144 HD
ATOM     17  H   UNL     1       7.872  -8.610   2.438  0.00  0.00    +0.144 HD
ENDROOT
BRANCH   1  18
ATOM     18  C   UNL     1       4.124  -5.211  -0.065  0.00  0.00    +0.153 C 
BRANCH  18  19
ATOM     19  S   UNL     1       2.525  -6.059  -0.192  0.00  0.00    -0.076 S 
BRANCH  19  28
ATOM     20  C   UNL     1      -1.177   0.535  -0.004  0.00  0.00    +0.066 C 
ATOM     21  C   UNL     1      -0.942  -0.952  -0.076  0.00  0.00    +0.044 A 
ATOM     22  C   UNL     1      -2.031  -1.825  -0.179  0.00  0.00    +0.046 A 
ATOM     23  C   UNL     1      -1.804  -3.163  -0.243  0.00  0.00    +0.045 A 
ATOM     24  N   UNL     1      -0.525  -3.619  -0.205  0.00  0.00    -0.200 N 
ATOM     25  C   UNL     1       0.516  -2.740  -0.104  0.00  0.00    +0.254 A 
ATOM     26  N   UNL     1       0.285  -1.423  -0.047  0.00  0.00    -0.216 NA
ATOM     27  N   UNL     1       1.637  -3.453  -0.089  0.00  0.00    -0.183 NA
ATOM     28  C   UNL     1       1.346  -4.749  -0.176  0.00  0.00    +0.211 A 
ATOM     29  N   UNL     1       0.039  -4.901  -0.249  0.00  0.00    -0.137 NA
ATOM     30  C   UNL     1      -2.956  -4.129  -0.353  0.00  0.00    +0.066 C 
ENDBRANCH  19  28
ENDBRANCH  18  19
ENDBRANCH   1  18
TORSDOF 3
