REMARK  Name = ZINC11496693
REMARK  9 active torsions:
REMARK  status: ('A' for Active; 'I' for Inactive)
REMARK    1  A    between atoms: C_1  and  C_2
REMARK    2  A    between atoms: C_7  and  N_12
REMARK    3  A    between atoms: C_9  and  C_11
REMARK    4  A    between atoms: C_13  and  C_15
REMARK    5  A    between atoms: C_15  and  O_16
REMARK    6  A    between atoms: O_16  and  C_17
REMARK    7  A    between atoms: C_17  and  C_19
REMARK    8  A    between atoms: C_19  and  N_20
REMARK    9  A    between atoms: C_21  and  C_23
REMARK                            x       y       z     vdW  Elec       q    Type
REMARK                         _______ _______ _______ _____ _____    ______ ____
ROOT
ATOM      1  C   UNL     1      -1.662   0.821  -5.856  0.00  0.00    +0.325 C 
ATOM      2  O   UNL     1      -2.369   1.798  -5.943  0.00  0.00    -0.249 OA
ENDROOT
BRANCH   1   3
ATOM      3  O   UNL     1      -1.083   0.515  -4.684  0.00  0.00    -0.454 OA
BRANCH   3   4
ATOM      4  C   UNL     1      -1.349   1.401  -3.565  0.00  0.00    +0.327 C 
BRANCH   4   6
ATOM      5  N   UNL     1      -0.721   1.571  -1.179  0.00  0.00    -0.309 N 
ATOM      6  C   UNL     1      -0.620   0.902  -2.344  0.00  0.00    +0.251 C 
ATOM      7  O   UNL     1       0.057  -0.102  -2.411  0.00  0.00    -0.272 OA
ATOM      8  H   UNL     1      -1.263   2.374  -1.126  0.00  0.00    +0.149 HD
BRANCH   5  14
ATOM      9  C   UNL     1      -1.466   3.603   2.534  0.00  0.00    +0.008 C 
ATOM     10  C   UNL     1      -0.750   3.109   1.275  0.00  0.00    -0.009 C 
ATOM     11  C   UNL     1       0.686   3.639   1.264  0.00  0.00    +0.003 C 
ATOM     12  C   UNL     1       1.402   3.145   0.006  0.00  0.00    +0.002 C 
ATOM     13  C   UNL     1       1.423   1.615  -0.003  0.00  0.00    +0.022 C 
ATOM     14  C   UNL     1      -0.013   1.086   0.008  0.00  0.00    +0.076 C 
ATOM     15  C   UNL     1      -0.729   1.579   1.267  0.00  0.00    +0.009 C 
ATOM     16  C   UNL     1      -2.164   1.050   1.278  0.00  0.00    +0.009 C 
ENDBRANCH   5  14
ENDBRANCH   4   6
ENDBRANCH   3   4
ENDBRANCH   1   3
BRANCH   1  17
ATOM     17  C   UNL     1      -1.432  -0.052  -7.062  0.00  0.00    +0.225 C 
BRANCH  17  18
ATOM     18  N   UNL     1      -2.167   0.491  -8.206  0.00  0.00    -0.300 N 
ATOM     19  C   UNL     1      -2.109  -0.130  -9.401  0.00  0.00    +0.253 C 
ATOM     20  O   UNL     1      -1.445  -1.142  -9.529  0.00  0.00    -0.270 OA
ATOM     21  H   UNL     1      -2.696   1.297  -8.104  0.00  0.00    +0.150 HD
BRANCH  19  22
ATOM     22  C   UNL     1      -2.846   0.414 -10.548  0.00  0.00    +0.093 A 
ATOM     23  C   UNL     1      -2.910  -0.065 -11.820  0.00  0.00    +0.068 A 
ATOM     24  C   UNL     1      -3.681   0.609 -12.786  0.00  0.00    +0.008 A 
ATOM     25  C   UNL     1      -3.872   0.270 -14.150  0.00  0.00    +0.010 A 
ATOM     26  C   UNL     1      -4.656   1.035 -14.953  0.00  0.00    +0.001 A 
ATOM     27  C   UNL     1      -5.298   2.171 -14.476  0.00  0.00    +0.001 A 
ATOM     28  C   UNL     1      -5.139   2.538 -13.155  0.00  0.00    +0.016 A 
ATOM     29  C   UNL     1      -4.346   1.771 -12.327  0.00  0.00    +0.021 A 
ATOM     30  S   UNL     1      -3.885   1.863 -10.616  0.00  0.00    -0.082 S 
ATOM     31 CL   UNL     1      -2.043  -1.507 -12.251  0.00  0.00    -0.082 Cl
ENDBRANCH  19  22
ENDBRANCH  17  18
ENDBRANCH   1  17
TORSDOF 7
