REMARK  Name = ZINC09428908
REMARK  7 active torsions:
REMARK  status: ('A' for Active; 'I' for Inactive)
REMARK    1  A    between atoms: C_1  and  C_2
REMARK    2  A    between atoms: C_7  and  S_15
REMARK    3  A    between atoms: C_12  and  C_14
REMARK    4  A    between atoms: S_15  and  N_18
REMARK    5  A    between atoms: C_22  and  C_24
REMARK    6  A    between atoms: N_26  and  C_27
REMARK    7  A    between atoms: C_27  and  C_28
REMARK                            x       y       z     vdW  Elec       q    Type
REMARK                         _______ _______ _______ _____ _____    ______ ____
ROOT
ATOM      1  N   UNL     1      -3.523   4.652  -1.221  0.00  0.00    -0.165 NA
ATOM      2  C   UNL     1      -4.417   3.509  -1.460  0.00  0.00    +0.110 C 
ATOM      3  C   UNL     1      -4.312   3.151  -2.958  0.00  0.00    +0.019 C 
ATOM      4  C   UNL     1      -2.939   3.750  -3.363  0.00  0.00    +0.031 C 
ATOM      5  C   UNL     1      -2.896   5.037  -2.498  0.00  0.00    +0.165 C 
ENDROOT
BRANCH   5   6
ATOM      6  C   UNL     1      -1.470   5.470  -2.273  0.00  0.00    +0.232 C 
ATOM      7  O   UNL     1      -0.777   4.880  -1.472  0.00  0.00    -0.274 OA
ATOM      8  N   UNL     1      -0.966   6.512  -2.963  0.00  0.00    -0.310 N 
ATOM      9  H   UNL     1      -1.520   6.984  -3.604  0.00  0.00    +0.149 HD
BRANCH   8  10
ATOM     10  C   UNL     1       0.421   6.933  -2.744  0.00  0.00    +0.139 C 
BRANCH  10  11
ATOM     11  C   UNL     1       0.734   8.110  -3.631  0.00  0.00    -0.027 A 
ATOM     12  C   UNL     1       0.515   9.396  -3.173  0.00  0.00    +0.009 A 
ATOM     13  C   UNL     1       0.801  10.479  -3.982  0.00  0.00    +0.050 A 
ATOM     14  C   UNL     1       1.309  10.279  -5.256  0.00  0.00    +0.166 A 
ATOM     15  C   UNL     1       1.530   8.983  -5.717  0.00  0.00    +0.167 A 
ATOM     16  C   UNL     1       1.246   7.902  -4.898  0.00  0.00    +0.054 A 
ATOM     17  O   UNL     1       2.028   9.051  -6.986  0.00  0.00    -0.453 OA
ATOM     18  C   UNL     1       1.726  10.381  -7.447  0.00  0.00    +0.466 C 
ATOM     19  O   UNL     1       1.668  11.158  -6.236  0.00  0.00    -0.453 OA
ENDBRANCH  10  11
ENDBRANCH   8  10
ENDBRANCH   5   6
BRANCH   1  20
ATOM     20  S   UNL     1      -3.268   5.389   0.240  0.00  0.00    +0.062 S 
ATOM     21  O   UNL     1      -2.045   6.103   0.127  0.00  0.00    -0.153 OA
ATOM     22  O   UNL     1      -3.483   4.399   1.237  0.00  0.00    -0.153 OA
BRANCH  20  28
ATOM     23  C   UNL     1      -9.967   8.478   0.662  0.00  0.00    +0.029 C 
ATOM     24  C   UNL     1      -8.745   8.465   1.582  0.00  0.00    +0.083 C 
ATOM     25  C   UNL     1      -8.165   7.044   1.677  0.00  0.00    +0.059 C 
ATOM     26  C   UNL     1      -6.759   7.170   1.135  0.00  0.00    -0.022 A 
ATOM     27  C   UNL     1      -5.762   6.227   0.974  0.00  0.00    +0.034 A 
ATOM     28  C   UNL     1      -4.538   6.593   0.445  0.00  0.00    +0.106 A 
ATOM     29  C   UNL     1      -4.315   7.906   0.073  0.00  0.00    +0.030 A 
ATOM     30  C   UNL     1      -5.304   8.851   0.237  0.00  0.00    +0.026 A 
ATOM     31  C   UNL     1      -6.543   8.489   0.769  0.00  0.00    +0.040 A 
ATOM     32  N   UNL     1      -7.670   9.281   1.011  0.00  0.00    -0.268 N 
ATOM     33  C   UNL     1      -7.755  10.602   0.756  0.00  0.00    +0.217 C 
ATOM     34  O   UNL     1      -6.834  11.176   0.215  0.00  0.00    -0.276 OA
ATOM     35  C   UNL     1      -8.995  11.366   1.144  0.00  0.00    +0.109 C 
ENDBRANCH  20  28
ENDBRANCH   1  20
TORSDOF 5
