REMARK  Name = ZINC63363005
REMARK  10 active torsions:
REMARK  status: ('A' for Active; 'I' for Inactive)
REMARK    1  A    between atoms: C_1  and  C_2
REMARK    2  A    between atoms: C_13  and  C_14
REMARK    3  A    between atoms: C_13  and  O_15
REMARK    4  A    between atoms: N_21  and  O_22
REMARK    5  A    between atoms: O_22  and  C_23
REMARK    6  A    between atoms: C_23  and  C_24
REMARK    7  A    between atoms: N_26  and  C_27
REMARK    8  A    between atoms: C_27  and  C_28
REMARK    9  A    between atoms: C_28  and  C_29
REMARK   10  A    between atoms: C_40  and  C_41
REMARK                            x       y       z     vdW  Elec       q    Type
REMARK                         _______ _______ _______ _____ _____    ______ ____
ROOT
ATOM      1  C   UNL     1      -0.019   1.528   0.010  0.00  0.00    +0.014 C 
ATOM      2  C   UNL     1       0.002  -0.004   0.002  0.00  0.00    -0.000 C 
ATOM      3  C   UNL     1      -1.404  -0.545   0.099  0.00  0.00    +0.010 C 
ATOM      4  C   UNL     1      -2.001  -0.093   1.451  0.00  0.00    +0.005 C 
ATOM      5  C   UNL     1      -1.184  -0.634   2.609  0.00  0.00    +0.006 C 
ATOM      6  C   UNL     1       0.299  -0.260   2.512  0.00  0.00    -0.003 C 
ATOM      7  C   UNL     1       0.839  -0.587   1.159  0.00  0.00    +0.001 C 
ATOM      8  C   UNL     1       2.252  -0.117   0.798  0.00  0.00    +0.007 C 
ATOM      9  C   UNL     1       2.300  -0.335  -0.741  0.00  0.00    +0.035 C 
ATOM     10  C   UNL     1       0.828  -0.425  -1.222  0.00  0.00    +0.069 C 
ATOM     11  C   UNL     1       0.495  -1.844  -1.667  0.00  0.00    +0.042 C 
ATOM     12  C   UNL     1       0.469   1.188   2.960  0.00  0.00    +0.008 C 
ATOM     13  C   UNL     1       0.356   1.190   4.490  0.00  0.00    +0.032 C 
ATOM     14  C   UNL     1      -0.825   0.356   4.924  0.00  0.00    -0.058 C 
ATOM     15  C   UNL     1      -1.043   0.295   6.245  0.00  0.00    +0.031 C 
ATOM     16  C   UNL     1      -2.148  -0.547   6.765  0.00  0.00    +0.102 C 
ATOM     17  N   UNL     1      -2.626  -0.386   7.979  0.00  0.00    -0.085 NA
ATOM     18  C   UNL     1      -2.674  -1.609   5.867  0.00  0.00    +0.027 C 
ATOM     19  C   UNL     1      -2.453  -1.516   4.557  0.00  0.00    -0.014 C 
ATOM     20  C   UNL     1      -1.743  -0.329   3.974  0.00  0.00    +0.011 C 
ATOM     21  C   UNL     1      -2.871   0.688   3.770  0.00  0.00    +0.020 C 
ENDROOT
BRANCH  10  22
ATOM     22  O   UNL     1       0.606   0.499  -2.290  0.00  0.00    -0.388 OA
ATOM     23  H   UNL     1       1.098   0.294  -3.097  0.00  0.00    +0.210 HD
ENDBRANCH  10  22
BRANCH  17  24
ATOM     24  O   UNL     1      -3.682  -1.209   8.439  0.00  0.00    -0.384 OA
BRANCH  24  25
ATOM     25  C   UNL     1      -4.101  -0.924   9.775  0.00  0.00    +0.358 C 
BRANCH  25  26
ATOM     26  C   UNL     1      -5.222  -1.855  10.159  0.00  0.00    +0.253 C 
ATOM     27  O   UNL     1      -5.623  -2.681   9.367  0.00  0.00    -0.272 OA
ATOM     28  N   UNL     1      -5.780  -1.769  11.383  0.00  0.00    -0.312 N 
ATOM     29  H   UNL     1      -5.459  -1.109  12.017  0.00  0.00    +0.149 HD
BRANCH  28  30
ATOM     30  C   UNL     1      -6.870  -2.674  11.757  0.00  0.00    +0.108 C 
BRANCH  30  31
ATOM     31  C   UNL     1      -7.319  -2.369  13.187  0.00  0.00    +0.052 C 
BRANCH  31  32
ATOM     32  C   UNL     1      -8.441  -3.299  13.571  0.00  0.00    -0.040 C 
ATOM     33  C   UNL     1      -8.333  -4.467  14.244  0.00  0.00    -0.001 A 
ATOM     34  C   UNL     1      -7.185  -5.194  14.798  0.00  0.00    +0.010 A 
ATOM     35  C   UNL     1      -7.396  -6.369  15.434  0.00  0.00    +0.001 A 
ATOM     36  C   UNL     1      -8.682  -6.909  15.577  0.00  0.00    +0.002 A 
ATOM     37  C   UNL     1      -9.786  -6.300  15.095  0.00  0.00    +0.026 A 
ATOM     38  C   UNL     1      -9.681  -5.058  14.408  0.00  0.00    +0.043 A 
ATOM     39  N   UNL     1     -10.586  -4.285  13.858  0.00  0.00    -0.380 N 
ATOM     40  C   UNL     1      -9.914  -3.112  13.287  0.00  0.00    +0.144 C 
ATOM     41  H   UNL     1     -11.540  -4.458  13.836  0.00  0.00    +0.160 HD
ENDBRANCH  31  32
ENDBRANCH  30  31
ENDBRANCH  28  30
ENDBRANCH  25  26
ENDBRANCH  24  25
ENDBRANCH  17  24
TORSDOF 7
