REMARK  Name = ZINC05125860
REMARK  3 active torsions:
REMARK  status: ('A' for Active; 'I' for Inactive)
REMARK    1  A    between atoms: C_14  and  C_15
REMARK    2  A    between atoms: N_17  and  N_18
REMARK    3  A    between atoms: C_19  and  C_20
REMARK                            x       y       z     vdW  Elec       q    Type
REMARK                         _______ _______ _______ _____ _____    ______ ____
ROOT
ATOM      1  C   UNL     1      -5.885  14.764   0.085  0.00  0.00    +0.000 A 
ATOM      2  C   UNL     1      -4.558  15.045  -0.186  0.00  0.00    +0.001 A 
ATOM      3  C   UNL     1      -3.620  14.030  -0.158  0.00  0.00    +0.010 A 
ATOM      4  C   UNL     1      -4.020  12.735   0.142  0.00  0.00    +0.003 A 
ATOM      5  C   UNL     1      -5.357  12.454   0.446  0.00  0.00    -0.038 A 
ATOM      6  C   UNL     1      -6.283  13.478   0.401  0.00  0.00    +0.004 A 
ATOM      7  C   UNL     1      -5.791  11.065   0.826  0.00  0.00    +0.040 C 
ATOM      8  C   UNL     1      -5.017   9.981   0.076  0.00  0.00    +0.044 C 
ATOM      9  C   UNL     1      -3.552  10.305   0.088  0.00  0.00    +0.010 A 
ATOM     10  C   UNL     1      -3.080  11.598   0.101  0.00  0.00    +0.070 A 
ATOM     11  N   UNL     1      -1.735  11.529   0.077  0.00  0.00    -0.276 N 
ATOM     12  H   UNL     1      -1.118  12.315   0.064  0.00  0.00    +0.189 HD
ATOM     13  N   UNL     1      -1.364  10.292   0.072  0.00  0.00    -0.168 NA
ATOM     14  C   UNL     1      -2.418   9.490   0.073  0.00  0.00    +0.152 A 
ENDROOT
BRANCH  14  15
ATOM     15  C   UNL     1      -2.398   8.013   0.066  0.00  0.00    +0.284 C 
ATOM     16  O   UNL     1      -3.443   7.391   0.073  0.00  0.00    -0.267 OA
ATOM     17  N   UNL     1      -1.222   7.355   0.051  0.00  0.00    -0.202 N 
ATOM     18  H   UNL     1      -0.389   7.852   0.045  0.00  0.00    +0.178 HD
BRANCH  17  19
ATOM     19  N   UNL     1      -1.203   5.955   0.044  0.00  0.00    -0.187 NA
ATOM     20  C   UNL     1      -0.070   5.321   0.030  0.00  0.00    +0.141 C 
BRANCH  20  21
ATOM     21  C   UNL     1      -0.050   3.847   0.023  0.00  0.00    +0.031 A 
ATOM     22  C   UNL     1       1.168   3.161   0.007  0.00  0.00    +0.051 A 
ATOM     23  C   UNL     1       1.178   1.780   0.000  0.00  0.00    +0.021 A 
ATOM     24  C   UNL     1      -0.013   1.076   0.008  0.00  0.00    +0.003 A 
ATOM     25  C   UNL     1      -1.222   1.748   0.017  0.00  0.00    +0.021 A 
ATOM     26  C   UNL     1      -1.249   3.128   0.031  0.00  0.00    +0.051 A 
ATOM     27 CL   UNL     1      -2.768   3.969   0.049  0.00  0.00    -0.083 Cl
ATOM     28 CL   UNL     1       2.663   4.042  -0.002  0.00  0.00    -0.083 Cl
ENDBRANCH  20  21
ENDBRANCH  17  19
ENDBRANCH  14  15
TORSDOF 3
