REMARK  Name = ZINC35519791
REMARK  8 active torsions:
REMARK  status: ('A' for Active; 'I' for Inactive)
REMARK    1  A    between atoms: C_4  and  N_7
REMARK    2  A    between atoms: C_8  and  C_10
REMARK    3  A    between atoms: C_10  and  O_11
REMARK    4  A    between atoms: O_11  and  C_12
REMARK    5  A    between atoms: C_17  and  C_18
REMARK    6  A    between atoms: C_19  and  C_20
REMARK    7  A    between atoms: C_19  and  C_22
REMARK    8  A    between atoms: C_24  and  C_27
REMARK                            x       y       z     vdW  Elec       q    Type
REMARK                         _______ _______ _______ _____ _____    ______ ____
ROOT
ATOM      1  C   UNL     1       5.847  -4.965   0.211  0.00  0.00    +0.128 A 
ATOM      2  C   UNL     1       7.122  -4.425   0.256  0.00  0.00    +0.046 A 
ATOM      3  C   UNL     1       8.208  -5.232   0.539  0.00  0.00    +0.004 A 
ATOM      4  C   UNL     1       8.033  -6.586   0.780  0.00  0.00    +0.001 A 
ATOM      5  C   UNL     1       6.774  -7.142   0.741  0.00  0.00    +0.011 A 
ATOM      6  C   UNL     1       5.663  -6.336   0.461  0.00  0.00    +0.018 A 
ENDROOT
BRANCH   6   7
ATOM      7  C   UNL     1       4.319  -6.919   0.422  0.00  0.00    +0.033 C 
ATOM      8  C   UNL     1       4.144  -8.205  -0.000  0.00  0.00    +0.084 C 
BRANCH   8   9
ATOM      9  C   UNL     1       2.817  -8.840   0.098  0.00  0.00    +0.119 A 
ATOM     10  N   UNL     1       2.445 -10.064  -0.248  0.00  0.00    -0.238 NA
ATOM     11  C   UNL     1       1.200 -10.472  -0.090  0.00  0.00    +0.079 A 
ATOM     12  C   UNL     1       0.273  -9.613   0.442  0.00  0.00    +0.075 A 
ATOM     13  S   UNL     1       1.284  -8.165   0.721  0.00  0.00    -0.074 S 
BRANCH  11  14
ATOM     14  C   UNL     1       0.807 -11.847  -0.484  0.00  0.00    +0.001 A 
ATOM     15  C   UNL     1      -0.510 -12.272  -0.321  0.00  0.00    +0.011 A 
ATOM     16  C   UNL     1      -0.870 -13.552  -0.690  0.00  0.00    +0.016 A 
ATOM     17  C   UNL     1       0.074 -14.413  -1.221  0.00  0.00    +0.018 A 
ATOM     18  C   UNL     1       1.384 -13.996  -1.385  0.00  0.00    +0.016 A 
ATOM     19  C   UNL     1       1.753 -12.716  -1.024  0.00  0.00    +0.011 A 
ATOM     20 BR   UNL     1      -0.427 -16.166  -1.725  0.00  0.00    -0.050 Br
ENDBRANCH  11  14
ENDBRANCH   8   9
BRANCH   8  21
ATOM     21  C   UNL     1       5.251  -8.938  -0.538  0.00  0.00    +0.102 C 
ATOM     22  N   UNL     1       6.128  -9.519  -0.965  0.00  0.00    -0.191 NA
ENDBRANCH   8  21
ENDBRANCH   6   7
BRANCH   1  23
ATOM     23  O   UNL     1       4.781  -4.173  -0.067  0.00  0.00    -0.482 OA
BRANCH  23  24
ATOM     24  C   UNL     1       5.045  -2.790  -0.310  0.00  0.00    +0.324 C 
BRANCH  24  26
ATOM     25  N   UNL     1       3.756  -0.752  -0.859  0.00  0.00    -0.283 N 
ATOM     26  C   UNL     1       3.751  -2.074  -0.599  0.00  0.00    +0.255 C 
ATOM     27  O   UNL     1       2.705  -2.688  -0.597  0.00  0.00    -0.272 OA
ATOM     28  H   UNL     1       4.598  -0.275  -0.930  0.00  0.00    +0.155 HD
BRANCH  25  32
ATOM     29  C   UNL     1       0.158   1.287  -1.358  0.00  0.00    +0.000 A 
ATOM     30  C   UNL     1       0.231   0.222  -0.479  0.00  0.00    +0.002 A 
ATOM     31  C   UNL     1       1.423  -0.456  -0.311  0.00  0.00    +0.023 A 
ATOM     32  C   UNL     1       2.547  -0.068  -1.027  0.00  0.00    +0.033 A 
ATOM     33  C   UNL     1       2.470   1.002  -1.910  0.00  0.00    +0.023 A 
ATOM     34  C   UNL     1       1.276   1.676  -2.072  0.00  0.00    +0.002 A 
ENDBRANCH  25  32
ENDBRANCH  24  26
ENDBRANCH  23  24
ENDBRANCH   1  23
TORSDOF 8
