REMARK  Name = ZINC63743249
REMARK  8 active torsions:
REMARK  status: ('A' for Active; 'I' for Inactive)
REMARK    1  A    between atoms: C_1  and  O_2
REMARK    2  A    between atoms: O_2  and  C_3
REMARK    3  A    between atoms: C_3  and  C_4
REMARK    4  A    between atoms: C_4  and  N_5
REMARK    5  A    between atoms: C_6  and  C_8
REMARK    6  A    between atoms: C_8  and  C_9
REMARK    7  A    between atoms: C_17  and  S_19
REMARK    8  A    between atoms: S_19  and  C_20
REMARK                            x       y       z     vdW  Elec       q    Type
REMARK                         _______ _______ _______ _____ _____    ______ ____
ROOT
ATOM      1  C   UNL     1      -2.499  -6.000  -0.714  0.00  0.00    -0.019 C 
ATOM      2  C   UNL     1      -1.786  -7.133  -0.907  0.00  0.00    +0.000 A 
ATOM      3  C   UNL     1      -0.387  -7.485  -0.638  0.00  0.00    +0.010 A 
ATOM      4  C   UNL     1       0.048  -8.728  -0.947  0.00  0.00    +0.001 A 
ATOM      5  C   UNL     1      -0.802  -9.685  -1.517  0.00  0.00    +0.002 A 
ATOM      6  C   UNL     1      -2.100  -9.437  -1.793  0.00  0.00    +0.026 A 
ATOM      7  C   UNL     1      -2.664  -8.162  -1.508  0.00  0.00    +0.044 A 
ATOM      8  N   UNL     1      -3.872  -7.684  -1.681  0.00  0.00    -0.369 N 
ATOM      9  C   UNL     1      -3.899  -6.298  -1.202  0.00  0.00    +0.170 C 
ATOM     10  H   UNL     1      -4.623  -8.168  -2.058  0.00  0.00    +0.161 HD
ENDROOT
BRANCH   1  11
ATOM     11  C   UNL     1      -2.001  -4.705  -0.126  0.00  0.00    +0.130 C 
BRANCH  11  13
ATOM     12  N   UNL     1      -1.093  -2.558  -0.952  0.00  0.00    -0.313 N 
ATOM     13  C   UNL     1      -1.496  -3.813  -1.231  0.00  0.00    +0.217 C 
ATOM     14  O   UNL     1      -1.452  -4.225  -2.371  0.00  0.00    -0.275 OA
ATOM     15  H   UNL     1      -1.127  -2.228  -0.041  0.00  0.00    +0.149 HD
BRANCH  12  16
ATOM     16  C   UNL     1      -0.601  -1.691  -2.026  0.00  0.00    +0.132 C 
BRANCH  16  17
ATOM     17  C   UNL     1      -0.211  -0.330  -1.445  0.00  0.00    +0.178 C 
BRANCH  17  19
ATOM     18  C   UNL     1       1.341   0.726   0.045  0.00  0.00    +0.194 C 
ATOM     19  O   UNL     1       0.895  -0.492  -0.555  0.00  0.00    -0.381 OA
ENDBRANCH  17  19
ENDBRANCH  16  17
ENDBRANCH  12  16
ENDBRANCH  11  13
ENDBRANCH   1  11
BRANCH   9  20
ATOM     20  S   UNL     1      -5.086  -6.126   0.160  0.00  0.00    -0.096 S 
BRANCH  20  21
ATOM     21  C   UNL     1      -6.654  -6.090  -0.643  0.00  0.00    +0.010 A 
ATOM     22  C   UNL     1      -7.404  -7.254  -0.759  0.00  0.00    +0.016 A 
ATOM     23  C   UNL     1      -8.632  -7.222  -1.389  0.00  0.00    +0.021 A 
ATOM     24  C   UNL     1      -9.117  -6.032  -1.904  0.00  0.00    +0.041 A 
ATOM     25  C   UNL     1      -8.372  -4.871  -1.790  0.00  0.00    +0.021 A 
ATOM     26  C   UNL     1      -7.146  -4.896  -1.156  0.00  0.00    +0.016 A 
ATOM     27 CL   UNL     1     -10.661  -5.997  -2.696  0.00  0.00    -0.084 Cl
ENDBRANCH  20  21
ENDBRANCH   9  20
TORSDOF 7
