REMARK  Name = ZINC51184569
REMARK  9 active torsions:
REMARK  status: ('A' for Active; 'I' for Inactive)
REMARK    1  A    between atoms: C_1  and  C_2
REMARK    2  A    between atoms: C_7  and  C_8
REMARK    3  A    between atoms: C_8  and  C_9
REMARK    4  A    between atoms: C_9  and  C_11
REMARK    5  A    between atoms: C_9  and  N_12
REMARK    6  A    between atoms: C_13  and  C_15
REMARK    7  A    between atoms: C_15  and  N_16
REMARK    8  A    between atoms: N_19  and  C_22
REMARK    9  A    between atoms: C_27  and  O_28
REMARK                            x       y       z     vdW  Elec       q    Type
REMARK                         _______ _______ _______ _____ _____    ______ ____
ROOT
ATOM      1  C   UNL     1      -4.433   1.407   0.510  0.00  0.00    +0.019 C 
ENDROOT
BRANCH   1   2
ATOM      2  N   UNL     1      -5.827   0.948   0.475  0.00  0.00    +0.387 N 
ATOM      3  C   UNL     1      -6.493   1.312   1.733  0.00  0.00    -0.059 C 
ATOM      4  C   UNL     1      -7.912   0.734   1.744  0.00  0.00    +0.086 C 
ATOM      5  N   UNL     1      -8.611   1.190   0.533  0.00  0.00    -0.331 N 
ATOM      6  C   UNL     1      -7.940   1.012  -0.763  0.00  0.00    +0.086 C 
ATOM      7  C   UNL     1      -6.520   1.577  -0.657  0.00  0.00    -0.059 C 
ATOM      8  H   UNL     1      -5.847  -0.055   0.364  0.00  0.00    -0.081 HD
BRANCH   5   9
ATOM      9  C   UNL     1      -9.880   1.777   0.613  0.00  0.00    +0.072 A 
ATOM     10  C   UNL     1     -10.002   3.151   0.762  0.00  0.00    +0.027 A 
ATOM     11  C   UNL     1     -11.256   3.728   0.840  0.00  0.00    +0.002 A 
ATOM     12  C   UNL     1     -12.389   2.939   0.770  0.00  0.00    +0.004 A 
ATOM     13  C   UNL     1     -12.274   1.569   0.622  0.00  0.00    +0.047 A 
ATOM     14  C   UNL     1     -11.022   0.983   0.537  0.00  0.00    +0.138 A 
BRANCH  14  15
ATOM     15  O   UNL     1     -10.908  -0.364   0.387  0.00  0.00    -0.505 OA
ATOM     16  H   UNL     1     -10.865  -0.851   1.221  0.00  0.00    +0.292 HD
ENDBRANCH  14  15
ENDBRANCH   5   9
ENDBRANCH   1   2
BRANCH   1  18
ATOM     17  N   UNL     1      -2.384   0.931   1.812  0.00  0.00    -0.314 N 
ATOM     18  C   UNL     1      -3.688   0.671   1.594  0.00  0.00    +0.197 C 
ATOM     19  O   UNL     1      -4.263  -0.155   2.271  0.00  0.00    -0.278 OA
ATOM     20  H   UNL     1      -1.924   1.591   1.271  0.00  0.00    +0.149 HD
BRANCH  17  21
ATOM     21  C   UNL     1      -1.661   0.215   2.866  0.00  0.00    +0.074 C 
ATOM     22  C   UNL     1      -1.823   0.960   4.192  0.00  0.00    +0.028 C 
BRANCH  21  23
ATOM     23  C   UNL     1      -0.176   0.137   2.503  0.00  0.00    +0.057 C 
BRANCH  23  30
ATOM     24  C   UNL     1      -0.144  -2.744   2.709  0.00  0.00    +0.044 C 
ATOM     25  C   UNL     1       0.010  -2.083   1.363  0.00  0.00    -0.047 A 
ATOM     26  C   UNL     1       0.162  -2.856   0.227  0.00  0.00    +0.003 A 
ATOM     27  C   UNL     1       0.303  -2.249  -1.007  0.00  0.00    +0.000 A 
ATOM     28  C   UNL     1       0.293  -0.870  -1.105  0.00  0.00    +0.000 A 
ATOM     29  C   UNL     1       0.141  -0.098   0.031  0.00  0.00    +0.004 A 
ATOM     30  C   UNL     1      -0.005  -0.705   1.265  0.00  0.00    -0.043 A 
ENDBRANCH  23  30
ENDBRANCH  21  23
ENDBRANCH  17  21
ENDBRANCH   1  18
TORSDOF 7
