REMARK  Name = ZINC35449887
REMARK  12 active torsions:
REMARK  status: ('A' for Active; 'I' for Inactive)
REMARK    1  A    between atoms: C_1  and  C_2
REMARK    2  A    between atoms: C_2  and  C_3
REMARK    3  A    between atoms: C_3  and  C_5
REMARK    4  A    between atoms: C_3  and  S_6
REMARK    5  A    between atoms: S_6  and  C_7
REMARK    6  A    between atoms: C_14  and  C_24
REMARK    7  A    between atoms: C_26  and  O_34
REMARK    8  A    between atoms: C_27  and  O_32
REMARK    9  A    between atoms: C_29  and  O_30
REMARK   10  A    between atoms: O_30  and  C_31
REMARK   11  A    between atoms: O_32  and  C_33
REMARK   12  A    between atoms: O_34  and  C_35
REMARK                            x       y       z     vdW  Elec       q    Type
REMARK                         _______ _______ _______ _____ _____    ______ ____
ROOT
ATOM      1  C   UNL     1       0.852  -0.566   4.057  0.00  0.00    +0.171 A 
ATOM      2  N   UNL     1       2.010  -1.133   3.787  0.00  0.00    -0.208 NA
ATOM      3  C   UNL     1       2.827  -1.536   4.766  0.00  0.00    +0.135 A 
ATOM      4  C   UNL     1       2.459  -1.355   6.088  0.00  0.00    +0.069 A 
ATOM      5  C   UNL     1       1.226  -0.754   6.370  0.00  0.00    +0.258 A 
ATOM      6  O   UNL     1       0.868  -0.581   7.524  0.00  0.00    -0.267 OA
ATOM      7  N   UNL     1       0.444  -0.365   5.341  0.00  0.00    -0.302 N 
ATOM      8  C   UNL     1       3.363  -1.789   7.203  0.00  0.00    +0.096 C 
ATOM      9  C   UNL     1       4.402  -2.768   6.718  0.00  0.00    +0.024 C 
ATOM     10  C   UNL     1       4.684  -2.895   5.404  0.00  0.00    +0.017 C 
ATOM     11  N   UNL     1       4.035  -2.135   4.469  0.00  0.00    -0.302 N 
ATOM     12  C   UNL     1       5.722  -3.881   4.924  0.00  0.00    +0.051 C 
ATOM     13  C   UNL     1       6.804  -4.049   5.992  0.00  0.00    +0.014 C 
ATOM     14  C   UNL     1       6.138  -4.529   7.286  0.00  0.00    +0.080 C 
ATOM     15  C   UNL     1       5.071  -3.545   7.680  0.00  0.00    +0.162 C 
ATOM     16  O   UNL     1       4.781  -3.420   8.854  0.00  0.00    -0.292 OA
ATOM     17  H   UNL     1       4.427  -2.017   3.590  0.00  0.00    +0.153 HD
ATOM     18  H   UNL     1      -0.412   0.056   5.516  0.00  0.00    +0.171 HD
ENDROOT
BRANCH   8  19
ATOM     19  C   UNL     1       4.056  -0.579   7.775  0.00  0.00    +0.010 A 
ATOM     20  C   UNL     1       4.858   0.204   6.966  0.00  0.00    +0.057 A 
ATOM     21  C   UNL     1       5.495   1.317   7.489  0.00  0.00    +0.162 A 
ATOM     22  C   UNL     1       5.328   1.646   8.831  0.00  0.00    +0.165 A 
ATOM     23  C   UNL     1       4.525   0.860   9.640  0.00  0.00    +0.095 A 
ATOM     24  C   UNL     1       3.884  -0.250   9.111  0.00  0.00    +0.128 A 
BRANCH  24  25
ATOM     25  O   UNL     1       3.090  -1.019   9.903  0.00  0.00    -0.495 OA
ATOM     26  C   UNL     1       2.958  -0.621  11.270  0.00  0.00    +0.277 C 
ENDBRANCH  24  25
BRANCH  22  27
ATOM     27  O   UNL     1       5.954   2.738   9.347  0.00  0.00    -0.491 OA
ATOM     28  C   UNL     1       5.737   3.016  10.732  0.00  0.00    +0.277 C 
ENDBRANCH  22  27
BRANCH  21  29
ATOM     29  O   UNL     1       6.285   2.087   6.692  0.00  0.00    -0.491 OA
ATOM     30  C   UNL     1       6.411   1.689   5.325  0.00  0.00    +0.277 C 
ENDBRANCH  21  29
ENDBRANCH   8  19
BRANCH   1  31
ATOM     31  S   UNL     1      -0.187  -0.052   2.730  0.00  0.00    -0.085 S 
BRANCH  31  32
ATOM     32  C   UNL     1       0.742  -0.511   1.242  0.00  0.00    +0.051 C 
ATOM     33  C   UNL     1       0.872  -2.034   1.171  0.00  0.00    +0.019 C 
BRANCH  32  35
ATOM     34  C   UNL     1      -0.019   1.526   0.010  0.00  0.00    +0.005 C 
ATOM     35  C   UNL     1       0.002  -0.004   0.002  0.00  0.00    +0.011 C 
ENDBRANCH  32  35
ENDBRANCH  31  32
ENDBRANCH   1  31
TORSDOF 7
