REMARK  Name = ZINC38836566
REMARK  7 active torsions:
REMARK  status: ('A' for Active; 'I' for Inactive)
REMARK    1  A    between atoms: C_4  and  S_7
REMARK    2  A    between atoms: S_7  and  C_8
REMARK    3  A    between atoms: C_8  and  C_9
REMARK    4  A    between atoms: C_9  and  N_10
REMARK    5  A    between atoms: C_11  and  C_13
REMARK    6  A    between atoms: N_16  and  C_19
REMARK    7  A    between atoms: C_19  and  C_20
REMARK                            x       y       z     vdW  Elec       q    Type
REMARK                         _______ _______ _______ _____ _____    ______ ____
ROOT
ATOM      1  C   UNL     1       4.899  -7.271  -0.086  0.00  0.00    +0.071 C 
ATOM      2  C   UNL     1       4.090  -7.585   1.176  0.00  0.00    -0.006 C 
ATOM      3  C   UNL     1       3.761  -9.080   1.205  0.00  0.00    -0.078 C 
ATOM      4  N   UNL     1       5.006  -9.858   1.214  0.00  0.00    +0.382 N 
ATOM      5  C   UNL     1       5.753  -9.616  -0.027  0.00  0.00    -0.078 C 
ATOM      6  C   UNL     1       6.158  -8.142  -0.103  0.00  0.00    -0.006 C 
ATOM      7  H   UNL     1       5.569  -9.581   2.004  0.00  0.00    -0.081 HD
ENDROOT
BRANCH   1   9
ATOM      8  N   UNL     1       4.342  -4.861  -0.067  0.00  0.00    -0.314 N 
ATOM      9  C   UNL     1       5.292  -5.816  -0.082  0.00  0.00    +0.216 C 
ATOM     10  O   UNL     1       6.464  -5.505  -0.092  0.00  0.00    -0.276 OA
ATOM     11  H   UNL     1       3.404  -5.109  -0.059  0.00  0.00    +0.149 HD
BRANCH   8  12
ATOM     12  C   UNL     1       4.724  -3.447  -0.064  0.00  0.00    +0.115 C 
BRANCH  12  13
ATOM     13  C   UNL     1       3.465  -2.578  -0.046  0.00  0.00    +0.093 C 
BRANCH  13  14
ATOM     14  S   UNL     1       3.939  -0.827  -0.042  0.00  0.00    -0.124 S 
BRANCH  14  18
ATOM     15  C   UNL     1      -0.017   1.379   0.010  0.00  0.00    +0.000 A 
ATOM     16  C   UNL     1       1.169   2.090   0.002  0.00  0.00    +0.001 A 
ATOM     17  C   UNL     1       2.377   1.421  -0.013  0.00  0.00    +0.015 A 
ATOM     18  C   UNL     1       2.400   0.031  -0.021  0.00  0.00    +0.008 A 
ATOM     19  C   UNL     1       1.206  -0.680  -0.013  0.00  0.00    +0.015 A 
ATOM     20  C   UNL     1       0.002  -0.004   0.002  0.00  0.00    +0.001 A 
ENDBRANCH  14  18
ENDBRANCH  13  14
ENDBRANCH  12  13
ENDBRANCH   8  12
ENDBRANCH   1   9
BRANCH   4  21
ATOM     21  C   UNL     1       4.687 -11.288   1.320  0.00  0.00    -0.042 C 
BRANCH  21  22
ATOM     22  C   UNL     1       5.963 -12.078   1.452  0.00  0.00    -0.056 A 
ATOM     23  C   UNL     1       6.496 -12.705   0.367  0.00  0.00    +0.002 A 
ATOM     24  C   UNL     1       7.675 -13.440   0.470  0.00  0.00    +0.001 A 
ATOM     25  C   UNL     1       8.328 -13.554   1.659  0.00  0.00    +0.008 A 
ATOM     26  C   UNL     1       7.809 -12.921   2.801  0.00  0.00    -0.018 A 
ATOM     27  C   UNL     1       6.613 -12.168   2.695  0.00  0.00    -0.017 A 
ATOM     28  C   UNL     1       6.097 -11.530   3.836  0.00  0.00    +0.009 A 
ATOM     29  C   UNL     1       6.754 -11.639   5.023  0.00  0.00    +0.001 A 
ATOM     30  C   UNL     1       7.933 -12.375   5.126  0.00  0.00    +0.001 A 
ATOM     31  C   UNL     1       8.455 -13.017   4.045  0.00  0.00    +0.008 A 
ENDBRANCH  21  22
ENDBRANCH   4  21
TORSDOF 7
