REMARK  Name = ZINC09397266
REMARK  2 active torsions:
REMARK  status: ('A' for Active; 'I' for Inactive)
REMARK    1  A    between atoms: C_4  and  C_7
REMARK    2  A    between atoms: C_25  and  C_30
REMARK                            x       y       z     vdW  Elec       q    Type
REMARK                         _______ _______ _______ _____ _____    ______ ____
ROOT
ATOM      1  C   UNL     1       3.697  -0.686  -0.037  0.00  0.00    +0.084 A 
ATOM      2  C   UNL     1       3.885  -1.861   0.732  0.00  0.00    +0.026 A 
ATOM      3  C   UNL     1       2.871  -2.394   1.535  0.00  0.00    +0.012 A 
ATOM      4  C   UNL     1       3.108  -3.528   2.254  0.00  0.00    +0.001 A 
ATOM      5  C   UNL     1       4.346  -4.163   2.200  0.00  0.00    +0.002 A 
ATOM      6  C   UNL     1       5.355  -3.671   1.427  0.00  0.00    +0.028 A 
ATOM      7  C   UNL     1       5.146  -2.507   0.675  0.00  0.00    +0.077 A 
ATOM      8  N   UNL     1       6.104  -1.982  -0.101  0.00  0.00    -0.214 NA
ATOM      9  C   UNL     1       5.875  -0.885  -0.796  0.00  0.00    +0.223 A 
ATOM     10  N   UNL     1       4.708  -0.251  -0.777  0.00  0.00    -0.214 NA
ATOM     11  N   UNL     1       6.895  -0.376  -1.586  0.00  0.00    -0.253 N 
ATOM     12  C   UNL     1       8.118  -1.015  -1.632  0.00  0.00    +0.222 A 
ATOM     13  N   UNL     1       8.291  -2.119  -0.916  0.00  0.00    -0.222 NA
ATOM     14  C   UNL     1       9.445  -2.761  -0.934  0.00  0.00    +0.127 A 
ATOM     15  C   UNL     1      10.483  -2.253  -1.725  0.00  0.00    +0.057 A 
ATOM     16  C   UNL     1      10.265  -1.085  -2.464  0.00  0.00    +0.057 A 
ATOM     17  N   UNL     1       9.077  -0.508  -2.396  0.00  0.00    -0.218 NA
ATOM     18  C   UNL     1      11.341  -0.483  -3.323  0.00  0.00    +0.068 C 
ATOM     19  C   UNL     1      12.387  -1.526  -3.707  0.00  0.00    +0.068 C 
ATOM     20  C   UNL     1      12.934  -2.195  -2.438  0.00  0.00    +0.091 C 
ATOM     21  C   UNL     1      11.784  -2.934  -1.784  0.00  0.00    +0.167 C 
ATOM     22  O   UNL     1      11.932  -4.047  -1.324  0.00  0.00    -0.292 OA
ATOM     23  H   UNL     1       6.749   0.430  -2.107  0.00  0.00    +0.158 HD
ENDROOT
BRANCH   1  27
ATOM     24  C   UNL     1      -0.016   1.380   0.011  0.00  0.00    +0.000 A 
ATOM     25  C   UNL     1       0.537   0.930   1.196  0.00  0.00    +0.001 A 
ATOM     26  C   UNL     1       1.742   0.258   1.187  0.00  0.00    +0.010 A 
ATOM     27  C   UNL     1       2.403   0.034  -0.021  0.00  0.00    +0.001 A 
ATOM     28  C   UNL     1       1.840   0.490  -1.213  0.00  0.00    +0.010 A 
ATOM     29  C   UNL     1       0.634   1.160  -1.190  0.00  0.00    +0.001 A 
ENDBRANCH   1  27
BRANCH  19  30
ATOM     30  C   UNL     1      13.516  -0.856  -4.447  0.00  0.00    +0.109 A 
ATOM     31  C   UNL     1      13.906  -1.133  -5.704  0.00  0.00    +0.045 A 
ATOM     32  C   UNL     1      14.992  -0.275  -5.995  0.00  0.00    +0.041 A 
ATOM     33  C   UNL     1      15.201   0.474  -4.897  0.00  0.00    +0.195 A 
ATOM     34  O   UNL     1      14.300   0.122  -3.965  0.00  0.00    -0.468 OA
ENDBRANCH  19  30
TORSDOF 2
