REMARK  Name = ZINC03136529
REMARK  9 active torsions:
REMARK  status: ('A' for Active; 'I' for Inactive)
REMARK    1  A    between atoms: C_1  and  C_2
REMARK    2  A    between atoms: C_5  and  C_9
REMARK    3  A    between atoms: C_6  and  O_8
REMARK    4  A    between atoms: N_10  and  N_11
REMARK    5  A    between atoms: C_12  and  C_14
REMARK    6  A    between atoms: C_14  and  O_15
REMARK    7  A    between atoms: O_15  and  C_16
REMARK    8  A    between atoms: C_17  and  C_24
REMARK    9  A    between atoms: C_21  and  C_22
REMARK                            x       y       z     vdW  Elec       q    Type
REMARK                         _______ _______ _______ _____ _____    ______ ____
ROOT
ATOM      1  N   UNL     1      -2.534   4.102   0.036  0.00  0.00    -0.204 N 
ATOM      2  C   UNL     1      -2.548   5.450   0.044  0.00  0.00    +0.270 C 
ATOM      3  O   UNL     1      -1.504   6.067   0.042  0.00  0.00    -0.270 OA
ATOM      4  H   UNL     1      -3.481   3.542   0.038  0.00  0.00    +0.177 HD
ENDROOT
BRANCH   1   6
ATOM      5  C   UNL     1      -1.301   2.116   0.020  0.00  0.00    +0.142 C 
ATOM      6  N   UNL     1      -1.314   3.414   0.027  0.00  0.00    -0.188 NA
BRANCH   5  11
ATOM      7  C   UNL     1       3.709  -0.714  -0.037  0.00  0.00    +0.044 C 
ATOM      8  C   UNL     1       2.398   0.030  -0.021  0.00  0.00    -0.047 A 
ATOM      9  C   UNL     1       1.207  -0.675  -0.013  0.00  0.00    +0.004 A 
ATOM     10  C   UNL     1       0.002  -0.004   0.002  0.00  0.00    +0.013 A 
ATOM     11  C   UNL     1      -0.017   1.393   0.010  0.00  0.00    +0.036 A 
ATOM     12  C   UNL     1       1.192   2.102   0.002  0.00  0.00    +0.126 A 
ATOM     13  C   UNL     1       2.393   1.412  -0.014  0.00  0.00    +0.049 A 
BRANCH  12  14
ATOM     14  O   UNL     1       1.186   3.460   0.009  0.00  0.00    -0.506 OA
ATOM     15  H   UNL     1       2.136   4.014   0.003  0.00  0.00    +0.292 HD
ENDBRANCH  12  14
ENDBRANCH   5  11
ENDBRANCH   1   6
BRANCH   2  16
ATOM     16  C   UNL     1      -3.861   6.190   0.054  0.00  0.00    +0.326 C 
BRANCH  16  17
ATOM     17  O   UNL     1      -3.615   7.597   0.060  0.00  0.00    -0.482 OA
BRANCH  17  18
ATOM     18  C   UNL     1      -4.701   8.414   0.070  0.00  0.00    +0.127 A 
ATOM     19  C   UNL     1      -5.258   8.842  -1.126  0.00  0.00    -0.007 A 
ATOM     20  C   UNL     1      -6.366   9.668  -1.114  0.00  0.00    +0.022 A 
ATOM     21  C   UNL     1      -6.912  10.077   0.089  0.00  0.00    +0.019 A 
ATOM     22  C   UNL     1      -6.354   9.655   1.283  0.00  0.00    +0.022 A 
ATOM     23  C   UNL     1      -5.250   8.825   1.276  0.00  0.00    -0.007 A 
ATOM     24  C   UNL     1      -4.643   8.366   2.576  0.00  0.00    +0.047 C 
ATOM     25 BR   UNL     1      -8.424  11.213   0.103  0.00  0.00    -0.050 Br
ATOM     26  C   UNL     1      -4.660   8.403  -2.437  0.00  0.00    +0.047 C 
ENDBRANCH  17  18
ENDBRANCH  16  17
ENDBRANCH   2  16
TORSDOF 6
