REMARK  Name = ZINC53654627
REMARK  6 active torsions:
REMARK  status: ('A' for Active; 'I' for Inactive)
REMARK    1  A    between atoms: C_3  and  C_28
REMARK    2  A    between atoms: C_6  and  C_7
REMARK    3  A    between atoms: C_12  and  C_17
REMARK    4  A    between atoms: N_19  and  C_20
REMARK    5  A    between atoms: C_20  and  C_21
REMARK    6  A    between atoms: C_21  and  C_22
REMARK                            x       y       z     vdW  Elec       q    Type
REMARK                         _______ _______ _______ _____ _____    ______ ____
ROOT
ATOM      1  C   UNL     1      -1.293  -0.775   0.011  0.00  0.00    +0.292 C 
ATOM      2  N   UNL     1      -1.103  -2.073   0.671  0.00  0.00    -0.303 N 
ATOM      3  C   UNL     1      -1.402  -3.050  -0.290  0.00  0.00    +0.073 A 
ATOM      4  C   UNL     1      -1.390  -4.432  -0.213  0.00  0.00    +0.039 A 
ATOM      5  C   UNL     1      -1.734  -5.195  -1.332  0.00  0.00    +0.039 A 
ATOM      6  C   UNL     1      -2.089  -4.557  -2.523  0.00  0.00    +0.017 A 
ATOM      7  C   UNL     1      -2.098  -3.182  -2.593  0.00  0.00    +0.048 A 
ATOM      8  C   UNL     1      -1.757  -2.418  -1.480  0.00  0.00    +0.144 A 
ATOM      9  O   UNL     1      -1.700  -1.067  -1.328  0.00  0.00    -0.465 OA
ATOM     10  H   UNL     1      -0.827  -2.225   1.589  0.00  0.00    +0.150 HD
ENDROOT
BRANCH   1  16
ATOM     11  C   UNL     1      -0.017   1.378   0.010  0.00  0.00    +0.009 A 
ATOM     12  C   UNL     1       1.171   2.086   0.002  0.00  0.00    +0.013 A 
ATOM     13  C   UNL     1       2.377   1.411  -0.013  0.00  0.00    +0.055 A 
ATOM     14  C   UNL     1       2.396   0.029  -0.020  0.00  0.00    +0.013 A 
ATOM     15  C   UNL     1       1.208  -0.679  -0.012  0.00  0.00    +0.009 A 
ATOM     16  C   UNL     1       0.002  -0.004   0.002  0.00  0.00    +0.011 A 
BRANCH  13  17
ATOM     17  C   UNL     1       3.672   2.182  -0.022  0.00  0.00    +0.417 C 
ATOM     18  F   UNL     1       4.086   2.414   1.294  0.00  0.00    -0.166 F 
ATOM     19  F   UNL     1       4.651   1.442  -0.695  0.00  0.00    -0.166 F 
ATOM     20  F   UNL     1       3.482   3.405  -0.674  0.00  0.00    -0.166 F 
ENDBRANCH  13  17
ENDBRANCH   1  16
BRANCH   5  21
ATOM     21  C   UNL     1      -1.722  -6.669  -1.256  0.00  0.00    +0.244 C 
ATOM     22  O   UNL     1      -1.412  -7.222  -0.218  0.00  0.00    -0.270 OA
ATOM     23  N   UNL     1      -2.054  -7.403  -2.336  0.00  0.00    -0.311 N 
ATOM     24  H   UNL     1      -2.301  -6.962  -3.164  0.00  0.00    +0.149 HD
BRANCH  23  25
ATOM     25  C   UNL     1      -2.042  -8.866  -2.261  0.00  0.00    +0.110 C 
BRANCH  25  26
ATOM     26  C   UNL     1      -2.456  -9.450  -3.613  0.00  0.00    +0.073 C 
BRANCH  26  27
ATOM     27  C   UNL     1      -2.443 -10.954  -3.535  0.00  0.00    +0.035 A 
ATOM     28  H   UNL     1      -3.524 -13.821  -2.946  0.00  0.00    +0.166 HD
ATOM     29  C   UNL     1      -3.449 -11.732  -3.089  0.00  0.00    +0.105 A 
ATOM     30  N   UNL     1      -3.021 -13.028  -3.191  0.00  0.00    -0.352 N 
ATOM     31  C   UNL     1      -1.769 -12.998  -3.695  0.00  0.00    +0.171 A 
ATOM     32  N   UNL     1      -1.432 -11.755  -3.903  0.00  0.00    -0.350 N 
ATOM     33  H   UNL     1      -0.583 -11.456  -4.265  0.00  0.00    +0.166 HD
ENDBRANCH  26  27
ENDBRANCH  25  26
ENDBRANCH  23  25
ENDBRANCH   5  21
TORSDOF 6
