REMARK  Name = ZINC67294253
REMARK  6 active torsions:
REMARK  status: ('A' for Active; 'I' for Inactive)
REMARK    1  A    between atoms: C_1  and  C_2
REMARK    2  A    between atoms: C_5  and  N_9
REMARK    3  A    between atoms: C_6  and  C_8
REMARK    4  A    between atoms: C_11  and  C_21
REMARK    5  A    between atoms: C_16  and  O_20
REMARK    6  A    between atoms: C_27  and  C_30
REMARK                            x       y       z     vdW  Elec       q    Type
REMARK                         _______ _______ _______ _____ _____    ______ ____
ROOT
ATOM      1  N   UNL     1       0.097  -4.072   0.007  0.00  0.00    -0.325 N 
ATOM      2  C   UNL     1      -0.089  -4.753  -1.103  0.00  0.00    +0.212 A 
ATOM      3  C   UNL     1      -0.337  -6.208  -1.075  0.00  0.00    +0.098 A 
ATOM      4  C   UNL     1      -1.035  -6.757  -2.142  0.00  0.00    +0.030 A 
ATOM      5  C   UNL     1      -1.433  -5.897  -3.196  0.00  0.00    +0.018 A 
ATOM      6  C   UNL     1      -2.307  -6.354  -4.194  0.00  0.00    +0.015 A 
ATOM      7  C   UNL     1      -2.716  -5.506  -5.180  0.00  0.00    +0.046 A 
ATOM      8  C   UNL     1      -2.265  -4.187  -5.211  0.00  0.00    +0.120 A 
ATOM      9  C   UNL     1      -1.385  -3.723  -4.245  0.00  0.00    +0.092 A 
ATOM     10  C   UNL     1      -0.955  -4.573  -3.240  0.00  0.00    +0.141 A 
ATOM     11  O   UNL     1      -0.066  -4.141  -2.315  0.00  0.00    -0.438 OA
ATOM     12  H   UNL     1       0.006  -4.513   0.867  0.00  0.00    +0.169 HD
ENDROOT
BRANCH   3  13
ATOM     13  C   UNL     1       0.136  -7.043   0.040  0.00  0.00    +0.254 C 
ATOM     14  O   UNL     1      -0.166  -8.220   0.089  0.00  0.00    -0.270 OA
ATOM     15  N   UNL     1       0.904  -6.503   1.007  0.00  0.00    -0.266 N 
ATOM     16  C   UNL     1       1.315  -7.282   2.086  0.00  0.00    +0.125 A 
ATOM     17  C   UNL     1       1.305  -8.668   1.978  0.00  0.00    +0.044 A 
ATOM     18  C   UNL     1       1.717  -9.430   3.057  0.00  0.00    +0.008 A 
ATOM     19  C   UNL     1       2.127  -8.777   4.212  0.00  0.00    -0.032 A 
ATOM     20  C   UNL     1       2.111  -7.397   4.249  0.00  0.00    +0.116 A 
ATOM     21  N   UNL     1       1.718  -6.696   3.203  0.00  0.00    -0.240 NA
ATOM     22  C   UNL     1       2.583  -9.566   5.412  0.00  0.00    +0.045 C 
ATOM     23  H   UNL     1       1.170  -5.572   0.952  0.00  0.00    +0.157 HD
ENDBRANCH   3  13
BRANCH   1  28
ATOM     24  C   UNL     1       1.418   1.410  -0.233  0.00  0.00    +0.044 C 
ATOM     25  C   UNL     1       1.065  -0.054  -0.169  0.00  0.00    -0.050 A 
ATOM     26  C   UNL     1       1.775  -0.967  -0.929  0.00  0.00    +0.005 A 
ATOM     27  C   UNL     1       1.458  -2.308  -0.875  0.00  0.00    +0.026 A 
ATOM     28  C   UNL     1       0.417  -2.744  -0.051  0.00  0.00    +0.045 A 
ATOM     29  C   UNL     1      -0.295  -1.817   0.713  0.00  0.00    -0.027 A 
ATOM     30  C   UNL     1       0.037  -0.479   0.653  0.00  0.00    +0.008 A 
ATOM     31  C   UNL     1      -1.420  -2.277   1.605  0.00  0.00    +0.046 C 
ENDBRANCH   1  28
BRANCH   8  32
ATOM     32  O   UNL     1      -2.689  -3.352  -6.192  0.00  0.00    -0.507 OA
ATOM     33  H   UNL     1      -3.496  -2.865  -5.973  0.00  0.00    +0.292 HD
ENDBRANCH   8  32
TORSDOF 3
