REMARK  Name = ZINC42860026
REMARK  8 active torsions:
REMARK  status: ('A' for Active; 'I' for Inactive)
REMARK    1  A    between atoms: C_1  and  C_2
REMARK    2  A    between atoms: C_8  and  C_10
REMARK    3  A    between atoms: C_10  and  N_11
REMARK    4  A    between atoms: N_11  and  C_12
REMARK    5  A    between atoms: C_15  and  S_19
REMARK    6  A    between atoms: C_17  and  N_18
REMARK    7  A    between atoms: S_19  and  N_22
REMARK    8  A    between atoms: N_22  and  C_23
REMARK                            x       y       z     vdW  Elec       q    Type
REMARK                         _______ _______ _______ _____ _____    ______ ____
ROOT
ATOM      1  C   UNL     1       4.181   0.007   2.695  0.00  0.00    +0.048 A 
ATOM      2  C   UNL     1       4.863   0.747   1.741  0.00  0.00    +0.026 A 
ATOM      3  C   UNL     1       6.177   1.115   1.962  0.00  0.00    +0.030 A 
ATOM      4  C   UNL     1       6.815   0.748   3.132  0.00  0.00    +0.107 A 
ATOM      5  C   UNL     1       6.142   0.011   4.089  0.00  0.00    +0.053 A 
ATOM      6  C   UNL     1       4.822  -0.359   3.878  0.00  0.00    +0.048 A 
ENDROOT
BRANCH   6   7
ATOM      7  N   UNL     1       4.138  -1.101   4.848  0.00  0.00    -0.356 N 
ATOM      8  H   UNL     1       3.216  -1.362   4.697  0.00  0.00    +0.142 HD
ATOM      9  H   UNL     1       4.585  -1.355   5.670  0.00  0.00    +0.142 HD
ENDBRANCH   6   7
BRANCH   4  10
ATOM     10  S   UNL     1       8.490   1.222   3.405  0.00  0.00    +0.058 S 
ATOM     11  O   UNL     1       9.029   0.291   4.335  0.00  0.00    -0.153 OA
ATOM     12  O   UNL     1       9.065   1.438   2.124  0.00  0.00    -0.153 OA
BRANCH  10  13
ATOM     13  N   UNL     1       8.466   2.691   4.168  0.00  0.00    -0.193 NA
ATOM     14  C   UNL     1       7.902   2.808   5.515  0.00  0.00    +0.127 C 
ATOM     15  H   UNL     1       8.825   3.475   3.723  0.00  0.00    +0.148 HD
ENDBRANCH  10  13
ENDBRANCH   4  10
BRANCH   1  16
ATOM     16  N   UNL     1       2.849  -0.367   2.474  0.00  0.00    -0.342 N 
ATOM     17  H   UNL     1       2.372  -0.881   3.144  0.00  0.00    +0.146 HD
BRANCH  16  18
ATOM     18  C   UNL     1       2.178   0.019   1.231  0.00  0.00    +0.105 C 
BRANCH  18  25
ATOM     19  C   UNL     1      -0.019   1.526   0.010  0.00  0.00    +0.008 C 
ATOM     20  C   UNL     1       0.002  -0.004   0.002  0.00  0.00    -0.010 C 
ATOM     21  C   UNL     1      -1.433  -0.534   0.013  0.00  0.00    +0.003 C 
ATOM     22  C   UNL     1      -1.413  -2.063   0.004  0.00  0.00    +0.000 C 
ATOM     23  C   UNL     1      -0.673  -2.570   1.244  0.00  0.00    +0.000 C 
ATOM     24  C   UNL     1       0.763  -2.041   1.233  0.00  0.00    +0.005 C 
ATOM     25  C   UNL     1       0.742  -0.511   1.242  0.00  0.00    +0.009 C 
ENDBRANCH  18  25
ENDBRANCH  16  18
ENDBRANCH   1  16
TORSDOF 6
