REMARK  Name = ZINC13065382
REMARK  7 active torsions:
REMARK  status: ('A' for Active; 'I' for Inactive)
REMARK    1  A    between atoms: C_3  and  C_7
REMARK    2  A    between atoms: C_7  and  N_62
REMARK    3  A    between atoms: C_8  and  C_9
REMARK    4  A    between atoms: C_8  and  N_62
REMARK    5  A    between atoms: C_24  and  C_25
REMARK    6  A    between atoms: C_24  and  N_62
REMARK    7  A    between atoms: N_29  and  C_30
REMARK                            x       y       z     vdW  Elec       q    Type
REMARK                         _______ _______ _______ _____ _____    ______ ____
ROOT
ATOM      1  N   UNL     1      -1.857   4.496   0.249  0.00  0.00    +0.390 N 
ATOM      2  H   UNL     1      -0.831   4.512   0.218  0.00  0.00    -0.080 HD
ENDROOT
BRANCH   1   3
ATOM      3  C   UNL     1      -2.380   5.613  -0.565  0.00  0.00    -0.040 C 
BRANCH   3   6
ATOM      4  C   UNL     1      -1.355   8.902   0.976  0.00  0.00    +0.020 A 
ATOM      5  C   UNL     1      -2.104   7.770   0.693  0.00  0.00    +0.005 A 
ATOM      6  C   UNL     1      -1.605   6.861  -0.228  0.00  0.00    -0.046 A 
ATOM      7  C   UNL     1      -0.391   7.118  -0.837  0.00  0.00    +0.112 A 
ATOM      8  N   UNL     1       0.292   8.207  -0.546  0.00  0.00    -0.263 NA
ATOM      9  C   UNL     1      -0.149   9.090   0.328  0.00  0.00    +0.111 A 
ENDBRANCH   3   6
ENDBRANCH   1   3
BRANCH   1  10
ATOM     10  C   UNL     1      -2.297   4.644   1.652  0.00  0.00    -0.036 C 
BRANCH  10  11
ATOM     11  C   UNL     1      -1.406   3.803   2.529  0.00  0.00    +0.001 A 
ATOM     12  C   UNL     1      -0.306   4.354   3.103  0.00  0.00    +0.017 A 
ATOM     13  C   UNL     1       0.538   3.511   3.949  0.00  0.00    +0.002 A 
ATOM     14  C   UNL     1       1.683   4.027   4.568  0.00  0.00    +0.059 A 
ATOM     15  C   UNL     1       2.458   3.209   5.360  0.00  0.00    +0.167 A 
ATOM     16  C   UNL     1       2.105   1.867   5.548  0.00  0.00    +0.168 A 
ATOM     17  C   UNL     1       0.975   1.350   4.940  0.00  0.00    +0.075 A 
ATOM     18  C   UNL     1       0.183   2.162   4.139  0.00  0.00    +0.053 A 
ATOM     19  N   UNL     1      -0.949   1.663   3.526  0.00  0.00    -0.322 N 
ATOM     20  H   UNL     1      -1.192   0.733   3.657  0.00  0.00    +0.169 HD
ATOM     21  C   UNL     1      -1.721   2.448   2.755  0.00  0.00    +0.251 A 
ATOM     22  O   UNL     1      -2.716   1.974   2.234  0.00  0.00    -0.268 OA
ATOM     23  O   UNL     1       3.029   1.287   6.366  0.00  0.00    -0.453 OA
ATOM     24  C   UNL     1       3.716   2.377   7.008  0.00  0.00    +0.466 C 
ATOM     25  O   UNL     1       3.602   3.458   6.064  0.00  0.00    -0.453 OA
ENDBRANCH  10  11
ENDBRANCH   1  10
BRANCH   1  26
ATOM     26  C   UNL     1      -2.334   3.207  -0.296  0.00  0.00    +0.001 C 
BRANCH  26  27
ATOM     27  C   UNL     1      -1.692   2.981  -1.641  0.00  0.00    +0.135 A 
ATOM     28  N   UNL     1      -2.169   3.345  -2.807  0.00  0.00    -0.115 NA
ATOM     29  N   UNL     1      -1.332   2.974  -3.713  0.00  0.00    -0.023 NA
ATOM     30  N   UNL     1      -0.330   2.388  -3.155  0.00  0.00    -0.044 NA
ATOM     31  N   UNL     1      -0.518   2.368  -1.879  0.00  0.00    -0.228 N 
BRANCH  31  32
ATOM     32  C   UNL     1       0.381   1.791  -0.876  0.00  0.00    +0.111 C 
ATOM     33  C   UNL     1       1.742   2.487  -0.950  0.00  0.00    +0.027 C 
ATOM     34  C   UNL     1       2.680   1.884   0.097  0.00  0.00    +0.002 C 
ATOM     35  C   UNL     1       2.856   0.389  -0.175  0.00  0.00    +0.000 C 
ATOM     36  C   UNL     1       1.496  -0.306  -0.101  0.00  0.00    +0.002 C 
ATOM     37  C   UNL     1       0.557   0.296  -1.148  0.00  0.00    +0.027 C 
ENDBRANCH  31  32
ENDBRANCH  26  27
ENDBRANCH   1  26
TORSDOF 7
