REMARK  Name = ZINC11329056
REMARK  7 active torsions:
REMARK  status: ('A' for Active; 'I' for Inactive)
REMARK    1  A    between atoms: C_1  and  C_2
REMARK    2  A    between atoms: C_5  and  C_8
REMARK    3  A    between atoms: N_15  and  C_18
REMARK    4  A    between atoms: C_18  and  C_19
REMARK    5  A    between atoms: N_21  and  C_22
REMARK    6  A    between atoms: C_27  and  S_28
REMARK    7  A    between atoms: S_28  and  C_29
REMARK                            x       y       z     vdW  Elec       q    Type
REMARK                         _______ _______ _______ _____ _____    ______ ____
ROOT
ATOM      1  C   UNL     1       8.437   4.704   1.712  0.00  0.00    +0.004 A 
ATOM      2  C   UNL     1       9.406   5.584   1.365  0.00  0.00    +0.056 A 
ATOM      3  S   UNL     1       9.292   5.643  -0.413  0.00  0.00    -0.076 S 
ATOM      4  C   UNL     1       7.959   4.496  -0.646  0.00  0.00    +0.116 A 
ATOM      5  C   UNL     1       7.633   4.094   0.659  0.00  0.00    +0.080 A 
ATOM      6  C   UNL     1       6.564   3.148   0.768  0.00  0.00    +0.263 A 
ATOM      7  O   UNL     1       6.209   2.739   1.860  0.00  0.00    -0.267 OA
ATOM      8  N   UNL     1       5.957   2.718  -0.353  0.00  0.00    -0.290 N 
ATOM      9  C   UNL     1       6.344   3.158  -1.578  0.00  0.00    +0.203 A 
ATOM     10  N   UNL     1       7.312   4.025  -1.709  0.00  0.00    -0.230 NA
ENDROOT
BRANCH   1  15
ATOM     11  C   UNL     1       7.508   3.394   7.242  0.00  0.00    +0.044 C 
ATOM     12  C   UNL     1       7.751   3.736   5.794  0.00  0.00    -0.050 A 
ATOM     13  C   UNL     1       9.034   3.682   5.280  0.00  0.00    +0.004 A 
ATOM     14  C   UNL     1       9.262   3.995   3.955  0.00  0.00    +0.009 A 
ATOM     15  C   UNL     1       8.197   4.366   3.136  0.00  0.00    -0.017 A 
ATOM     16  C   UNL     1       6.907   4.425   3.662  0.00  0.00    +0.009 A 
ATOM     17  C   UNL     1       6.690   4.104   4.986  0.00  0.00    +0.004 A 
ENDBRANCH   1  15
BRANCH   8  18
ATOM     18  C   UNL     1       4.862   1.750  -0.251  0.00  0.00    +0.222 C 
BRANCH  18  19
ATOM     19  C   UNL     1       3.553   2.485  -0.121  0.00  0.00    +0.237 C 
ATOM     20  O   UNL     1       3.536   3.697  -0.114  0.00  0.00    -0.274 OA
ATOM     21  N   UNL     1       2.401   1.794  -0.012  0.00  0.00    -0.283 N 
ATOM     22  H   UNL     1       2.420   0.827   0.063  0.00  0.00    +0.155 HD
BRANCH  21  23
ATOM     23  C   UNL     1       1.175   2.473  -0.007  0.00  0.00    +0.047 A 
ATOM     24  C   UNL     1       1.068   3.719  -0.606  0.00  0.00    +0.024 A 
ATOM     25  C   UNL     1      -0.143   4.387  -0.600  0.00  0.00    +0.002 A 
ATOM     26  C   UNL     1      -1.250   3.816   0.001  0.00  0.00    +0.001 A 
ATOM     27  C   UNL     1      -1.154   2.572   0.595  0.00  0.00    +0.017 A 
ATOM     28  C   UNL     1       0.059   1.897   0.600  0.00  0.00    +0.034 A 
BRANCH  28  29
ATOM     29  S   UNL     1       0.186   0.314   1.363  0.00  0.00    -0.054 S 
BRANCH  29  30
ATOM     30  C   UNL     1      -1.484  -0.004   1.996  0.00  0.00    +0.404 C 
ATOM     31  F   UNL     1      -1.835   0.996   2.910  0.00  0.00    -0.197 F 
ATOM     32  F   UNL     1      -2.394  -0.003   0.933  0.00  0.00    -0.197 F 
ENDBRANCH  29  30
ENDBRANCH  28  29
ENDBRANCH  21  23
ENDBRANCH  18  19
ENDBRANCH   8  18
TORSDOF 6
