REMARK  Name = ZINC05266964
REMARK  4 active torsions:
REMARK  status: ('A' for Active; 'I' for Inactive)
REMARK    1  A    between atoms: C_1  and  C_2
REMARK    2  A    between atoms: C_9  and  N_14
REMARK    3  A    between atoms: C_10  and  C_11
REMARK    4  A    between atoms: C_15  and  C_17
REMARK                            x       y       z     vdW  Elec       q    Type
REMARK                         _______ _______ _______ _____ _____    ______ ____
ROOT
ATOM      1  N   UNL     1       1.929  -5.844  -1.736  0.00  0.00    -0.274 N 
ATOM      2  C   UNL     1       2.226  -6.106  -3.024  0.00  0.00    +0.269 C 
ATOM      3  O   UNL     1       2.198  -5.212  -3.848  0.00  0.00    -0.268 OA
ATOM      4  H   UNL     1       1.952  -6.557  -1.079  0.00  0.00    +0.156 HD
ENDROOT
BRANCH   2   5
ATOM      5  C   UNL     1       2.586  -7.477  -3.435  0.00  0.00    +0.154 A 
ATOM      6  C   UNL     1       2.906  -7.774  -4.840  0.00  0.00    +0.020 A 
ATOM      7  C   UNL     1       2.889  -6.805  -5.838  0.00  0.00    +0.011 A 
ATOM      8  C   UNL     1       3.201  -7.161  -7.133  0.00  0.00    +0.001 A 
ATOM      9  C   UNL     1       3.531  -8.472  -7.450  0.00  0.00    +0.001 A 
ATOM     10  C   UNL     1       3.562  -9.446  -6.475  0.00  0.00    +0.014 A 
ATOM     11  C   UNL     1       3.246  -9.108  -5.163  0.00  0.00    +0.050 A 
ATOM     12  C   UNL     1       3.240 -10.086  -4.066  0.00  0.00    +0.272 A 
ATOM     13  O   UNL     1       3.518 -11.253  -4.270  0.00  0.00    -0.266 OA
ATOM     14  N   UNL     1       2.920  -9.660  -2.827  0.00  0.00    -0.242 N 
ATOM     15  H   UNL     1       2.917 -10.328  -2.083  0.00  0.00    +0.192 HD
ATOM     16  N   UNL     1       2.619  -8.447  -2.553  0.00  0.00    -0.166 NA
ENDBRANCH   2   5
BRANCH   1  24
ATOM     17  C   UNL     1      -0.019   1.526   0.010  0.00  0.00    +0.008 C 
ATOM     18  C   UNL     1       0.002  -0.004   0.002  0.00  0.00    -0.009 C 
ATOM     19  C   UNL     1       0.742  -0.514   1.242  0.00  0.00    +0.008 C 
ATOM     20  C   UNL     1       0.557  -2.027   1.373  0.00  0.00    +0.037 C 
ATOM     21  C   UNL     1       0.941  -2.684   0.053  0.00  0.00    -0.023 A 
ATOM     22  C   UNL     1       1.008  -1.966  -1.089  0.00  0.00    -0.004 A 
ATOM     23  S   UNL     1       1.484  -3.133  -2.331  0.00  0.00    -0.077 S 
ATOM     24  C   UNL     1       1.592  -4.557  -1.351  0.00  0.00    +0.085 A 
ATOM     25  C   UNL     1       1.258  -4.096  -0.085  0.00  0.00    +0.068 A 
ATOM     26  C   UNL     1       0.736  -0.502  -1.252  0.00  0.00    +0.046 C 
BRANCH  25  27
ATOM     27  C   UNL     1       1.226  -4.998   1.070  0.00  0.00    +0.244 C 
ATOM     28  O   UNL     1       0.198  -5.582   1.358  0.00  0.00    -0.270 OA
ATOM     29  N   UNL     1       2.336  -5.182   1.813  0.00  0.00    -0.325 N 
ATOM     30  H   UNL     1       3.156  -4.716   1.583  0.00  0.00    +0.145 HD
ATOM     31  H   UNL     1       2.315  -5.779   2.577  0.00  0.00    +0.145 HD
ENDBRANCH  25  27
ENDBRANCH   1  24
TORSDOF 3
