REMARK  Name = ZINC60893104
REMARK  6 active torsions:
REMARK  status: ('A' for Active; 'I' for Inactive)
REMARK    1  A    between atoms: C_1  and  N_2
REMARK    2  A    between atoms: N_2  and  S_3
REMARK    3  A    between atoms: S_3  and  C_6
REMARK    4  A    between atoms: C_9  and  C_11
REMARK    5  A    between atoms: C_11  and  N_12
REMARK    6  A    between atoms: N_15  and  C_16
REMARK                            x       y       z     vdW  Elec       q    Type
REMARK                         _______ _______ _______ _____ _____    ______ ____
ROOT
ATOM      1  N   UNL     1      -0.960   0.487   7.413  0.00  0.00    -0.295 N 
ATOM      2  C   UNL     1      -1.183   0.943   8.662  0.00  0.00    +0.300 C 
ATOM      3  O   UNL     1      -1.991   1.831   8.850  0.00  0.00    -0.253 OA
ATOM      4  N   UNL     1      -0.510   0.412   9.702  0.00  0.00    -0.294 N 
ATOM      5  H   UNL     1      -0.316  -0.222   7.263  0.00  0.00    +0.151 HD
ATOM      6  H   UNL     1       0.135  -0.297   9.552  0.00  0.00    +0.151 HD
ENDROOT
BRANCH   4   7
ATOM      7  C   UNL     1      -0.752   0.908  11.060  0.00  0.00    +0.037 C 
ATOM      8  C   UNL     1      -0.419   2.400  11.125  0.00  0.00    +0.029 C 
ATOM      9  C   UNL     1      -0.671   2.917  12.543  0.00  0.00    -0.008 C 
ATOM     10  C   UNL     1       0.214   2.152  13.530  0.00  0.00    +0.007 C 
ATOM     11  C   UNL     1      -0.119   0.660  13.464  0.00  0.00    -0.008 C 
ATOM     12  C   UNL     1       0.134   0.143  12.046  0.00  0.00    +0.029 C 
ATOM     13  C   UNL     1      -1.590   0.450  13.829  0.00  0.00    +0.007 C 
ATOM     14  C   UNL     1      -2.475   1.214  12.843  0.00  0.00    -0.008 C 
ATOM     15  C   UNL     1      -2.142   2.706  12.908  0.00  0.00    +0.007 C 
ATOM     16  C   UNL     1      -2.222   0.697  11.425  0.00  0.00    +0.029 C 
ENDBRANCH   4   7
BRANCH   1  17
ATOM     17  C   UNL     1      -1.692   1.063   6.282  0.00  0.00    +0.148 C 
BRANCH  17  21
ATOM     18  C   UNL     1      -0.166  -0.494   2.705  0.00  0.00    +0.143 A 
ATOM     19  C   UNL     1      -1.217  -1.168   3.231  0.00  0.00    +0.037 A 
ATOM     20  C   UNL     1      -1.779  -0.719   4.412  0.00  0.00    +0.015 A 
ATOM     21  C   UNL     1      -1.262   0.384   5.007  0.00  0.00    +0.009 A 
ATOM     22  S   UNL     1       0.064   0.818   3.894  0.00  0.00    -0.072 S 
BRANCH  18  23
ATOM     23  S   UNL     1       0.742  -0.829   1.233  0.00  0.00    +0.064 S 
ATOM     24  O   UNL     1       0.570  -2.212   0.955  0.00  0.00    -0.153 OA
ATOM     25  O   UNL     1       2.024  -0.240   1.403  0.00  0.00    -0.153 OA
BRANCH  23  27
ATOM     26  C   UNL     1      -0.018   1.461   0.010  0.00  0.00    +0.127 C 
ATOM     27  N   UNL     1       0.002  -0.004   0.002  0.00  0.00    -0.193 NA
ATOM     28  H   UNL     1      -0.418  -0.491  -0.724  0.00  0.00    +0.148 HD
ENDBRANCH  23  27
ENDBRANCH  18  23
ENDBRANCH  17  21
ENDBRANCH   1  17
TORSDOF 5
