REMARK  Name = ZINC27675542
REMARK  11 active torsions:
REMARK  status: ('A' for Active; 'I' for Inactive)
REMARK    1  A    between atoms: C_1  and  C_2
REMARK    2  A    between atoms: C_5  and  C_8
REMARK    3  A    between atoms: C_8  and  C_30
REMARK    4  A    between atoms: N_11  and  C_15
REMARK    5  A    between atoms: C_15  and  C_16
REMARK    6  A    between atoms: N_18  and  C_19
REMARK    7  A    between atoms: C_19  and  C_20
REMARK    8  A    between atoms: C_20  and  C_22
REMARK    9  A    between atoms: C_20  and  N_27
REMARK   10  A    between atoms: N_27  and  C_28
REMARK   11  A    between atoms: N_27  and  C_29
REMARK                            x       y       z     vdW  Elec       q    Type
REMARK                         _______ _______ _______ _____ _____    ______ ____
ROOT
ATOM      1  C   UNL     1       1.636  -5.244  -1.284  0.00  0.00    +0.135 C 
ATOM      2  C   UNL     1       0.703  -5.748  -2.368  0.00  0.00    +0.251 C 
ATOM      3  O   UNL     1       0.924  -5.799  -3.558  0.00  0.00    -0.272 OA
ATOM      4  N   UNL     1      -0.423  -6.126  -1.731  0.00  0.00    -0.215 N 
ATOM      5  C   UNL     1      -0.332  -5.933  -0.410  0.00  0.00    +0.310 C 
ATOM      6  O   UNL     1      -1.222  -6.198   0.374  0.00  0.00    -0.252 OA
ATOM      7  N   UNL     1       0.854  -5.412  -0.048  0.00  0.00    -0.281 N 
ATOM      8  C   UNL     1       2.912  -6.088  -1.238  0.00  0.00    +0.047 C 
ATOM      9  H   UNL     1       1.288  -5.123   0.921  0.00  0.00    +0.152 HD
ENDROOT
BRANCH   1  14
ATOM     10  C   UNL     1       2.918   0.326  -2.135  0.00  0.00    +0.044 C 
ATOM     11  C   UNL     1       2.584  -1.127  -1.913  0.00  0.00    -0.050 A 
ATOM     12  C   UNL     1       2.302  -1.944  -2.992  0.00  0.00    +0.004 A 
ATOM     13  C   UNL     1       2.001  -3.277  -2.789  0.00  0.00    +0.006 A 
ATOM     14  C   UNL     1       1.971  -3.792  -1.506  0.00  0.00    -0.015 A 
ATOM     15  C   UNL     1       2.248  -2.973  -0.427  0.00  0.00    +0.006 A 
ATOM     16  C   UNL     1       2.555  -1.641  -0.631  0.00  0.00    +0.004 A 
ENDBRANCH   1  14
BRANCH   4  17
ATOM     17  C   UNL     1      -1.602  -6.679  -2.403  0.00  0.00    +0.213 C 
BRANCH  17  18
ATOM     18  C   UNL     1      -1.479  -8.179  -2.479  0.00  0.00    +0.231 C 
ATOM     19  O   UNL     1      -0.503  -8.732  -2.018  0.00  0.00    -0.274 OA
ATOM     20  N   UNL     1      -2.454  -8.906  -3.060  0.00  0.00    -0.312 N 
ATOM     21  H   UNL     1      -3.339  -8.405  -3.478  0.00  0.00    +0.149 HD
BRANCH  20  22
ATOM     22  C   UNL     1      -2.334 -10.364  -3.134  0.00  0.00    +0.128 C 
BRANCH  22  23
ATOM     23  C   UNL     1      -3.602 -10.949  -3.761  0.00  0.00    +0.110 C 
BRANCH  23  24
ATOM     24  C   UNL     1      -3.696 -10.514  -5.201  0.00  0.00    +0.008 A 
ATOM     25  C   UNL     1      -3.369 -11.200  -6.323  0.00  0.00    +0.013 A 
ATOM     26  C   UNL     1      -3.544 -10.596  -7.554  0.00  0.00    +0.008 A 
ATOM     27  C   UNL     1      -4.027  -9.331  -7.602  0.00  0.00    +0.045 A 
ATOM     28  S   UNL     1      -4.259  -8.958  -5.871  0.00  0.00    -0.100 S 
ENDBRANCH  23  24
BRANCH  23  29
ATOM     29  N   UNL     1      -4.779 -10.467  -3.026  0.00  0.00    -0.300 NA
ATOM     30  C   UNL     1      -6.017 -11.010  -3.602  0.00  0.00    +0.105 C 
ATOM     31  C   UNL     1      -4.676 -10.791  -1.597  0.00  0.00    +0.105 C 
ENDBRANCH  23  29
ENDBRANCH  22  23
ENDBRANCH  20  22
ENDBRANCH  17  18
ENDBRANCH   4  17
TORSDOF 7
