REMARK  Name = ZINC62220527
REMARK  7 active torsions:
REMARK  status: ('A' for Active; 'I' for Inactive)
REMARK    1  A    between atoms: C_1  and  C_2
REMARK    2  A    between atoms: C_2  and  C_3
REMARK    3  A    between atoms: C_3  and  C_4
REMARK    4  A    between atoms: C_4  and  C_6
REMARK    5  A    between atoms: C_4  and  C_21
REMARK    6  A    between atoms: C_6  and  C_7
REMARK    7  A    between atoms: N_9  and  C_10
REMARK                            x       y       z     vdW  Elec       q    Type
REMARK                         _______ _______ _______ _____ _____    ______ ____
ROOT
ATOM      1  C   UNL     1       3.045  -2.247  -2.203  0.00  0.00    +0.218 C 
ATOM      2  O   UNL     1       3.424  -1.757  -1.160  0.00  0.00    -0.275 OA
ATOM      3  N   UNL     1       3.914  -2.429  -3.216  0.00  0.00    -0.285 N 
ATOM      4  H   UNL     1       3.631  -2.889  -4.022  0.00  0.00    +0.155 HD
ENDROOT
BRANCH   3   5
ATOM      5  C   UNL     1       5.227  -1.952  -3.107  0.00  0.00    +0.037 A 
ATOM      6  C   UNL     1       6.269  -2.646  -3.712  0.00  0.00    +0.025 A 
ATOM      7  C   UNL     1       7.564  -2.181  -3.607  0.00  0.00    +0.031 A 
ATOM      8  C   UNL     1       7.826  -1.019  -2.896  0.00  0.00    +0.087 A 
ATOM      9  C   UNL     1       6.784  -0.320  -2.288  0.00  0.00    +0.159 A 
ATOM     10  C   UNL     1       5.484  -0.787  -2.400  0.00  0.00    +0.071 A 
ATOM     11  O   UNL     1       7.327   0.759  -1.673  0.00  0.00    -0.408 OA
ATOM     12  C   UNL     1       8.655   0.759  -1.873  0.00  0.00    +0.419 A 
ATOM     13  O   UNL     1       9.428   1.595  -1.448  0.00  0.00    -0.223 OA
ATOM     14  N   UNL     1       8.997  -0.312  -2.616  0.00  0.00    -0.288 N 
ATOM     15  H   UNL     1       9.893  -0.549  -2.903  0.00  0.00    +0.172 HD
ENDBRANCH   3   5
BRANCH   1  16
ATOM     16  C   UNL     1       1.603  -2.651  -2.365  0.00  0.00    +0.104 C 
BRANCH  16  17
ATOM     17  C   UNL     1       0.837  -2.340  -1.078  0.00  0.00    +0.028 C 
BRANCH  17  18
ATOM     18  C   UNL     1      -0.574  -2.856  -1.195  0.00  0.00    -0.044 A 
ATOM     19  C   UNL     1      -1.399  -2.389  -2.201  0.00  0.00    +0.007 A 
ATOM     20  C   UNL     1      -2.693  -2.861  -2.310  0.00  0.00    +0.038 A 
ATOM     21  C   UNL     1      -3.163  -3.803  -1.410  0.00  0.00    +0.123 A 
ATOM     22  C   UNL     1      -2.336  -4.270  -0.403  0.00  0.00    +0.038 A 
ATOM     23  C   UNL     1      -1.041  -3.800  -0.299  0.00  0.00    +0.007 A 
ATOM     24  F   UNL     1      -4.428  -4.266  -1.515  0.00  0.00    -0.205 F 
ENDBRANCH  17  18
BRANCH  17  25
ATOM     25  C   UNL     1       0.810  -0.827  -0.854  0.00  0.00    +0.008 C 
BRANCH  25  27
ATOM     26  C   UNL     1       0.127   0.991   0.718  0.00  0.00    +0.004 C 
ATOM     27  C   UNL     1       0.154  -0.522   0.494  0.00  0.00    -0.003 C 
ENDBRANCH  25  27
ENDBRANCH  17  25
ENDBRANCH  16  17
ENDBRANCH   1  16
TORSDOF 6
