REMARK  Name = ZINC67101987
REMARK  7 active torsions:
REMARK  status: ('A' for Active; 'I' for Inactive)
REMARK    1  A    between atoms: C_1  and  C_2
REMARK    2  A    between atoms: C_2  and  O_3
REMARK    3  A    between atoms: O_3  and  C_4
REMARK    4  A    between atoms: C_7  and  C_10
REMARK    5  A    between atoms: N_18  and  N_19
REMARK    6  A    between atoms: C_20  and  C_22
REMARK    7  A    between atoms: C_23  and  C_27
REMARK                            x       y       z     vdW  Elec       q    Type
REMARK                         _______ _______ _______ _____ _____    ______ ____
ROOT
ATOM      1  C   UNL     1       1.145  -6.058   1.765  0.00  0.00    +0.108 C 
ATOM      2  C   UNL     1       0.083  -6.565   2.763  0.00  0.00    +0.029 C 
ATOM      3  C   UNL     1       0.844  -7.663   3.552  0.00  0.00    +0.021 C 
ATOM      4  C   UNL     1       2.271  -7.064   3.620  0.00  0.00    +0.110 C 
ATOM      5  N   UNL     1       2.465  -6.397   2.316  0.00  0.00    -0.277 N 
ATOM      6  C   UNL     1       3.650  -6.142   1.729  0.00  0.00    +0.319 C 
ATOM      7  O   UNL     1       3.685  -5.669   0.609  0.00  0.00    -0.251 OA
ATOM      8  N   UNL     1       4.798  -6.411   2.383  0.00  0.00    -0.218 N 
ATOM      9  H   UNL     1       4.772  -6.855   3.245  0.00  0.00    +0.174 HD
ENDROOT
BRANCH   1  13
ATOM     10  C   UNL     1       0.804  -1.822   1.310  0.00  0.00    +0.121 A 
ATOM     11  C   UNL     1       0.262  -2.670   0.355  0.00  0.00    +0.046 A 
ATOM     12  C   UNL     1       0.373  -4.038   0.504  0.00  0.00    +0.009 A 
ATOM     13  C   UNL     1       1.025  -4.564   1.604  0.00  0.00    -0.027 A 
ATOM     14  C   UNL     1       1.566  -3.722   2.558  0.00  0.00    +0.009 A 
ATOM     15  C   UNL     1       1.463  -2.352   2.410  0.00  0.00    +0.046 A 
BRANCH  10  16
ATOM     16  O   UNL     1       0.697  -0.475   1.165  0.00  0.00    -0.492 OA
BRANCH  16  18
ATOM     17  C   UNL     1      -0.015   1.529   0.018  0.00  0.00    +0.048 C 
ATOM     18  C   UNL     1       0.005  -0.001   0.008  0.00  0.00    +0.225 C 
ENDBRANCH  16  18
ENDBRANCH  10  16
ENDBRANCH   1  13
BRANCH   8  19
ATOM     19  N   UNL     1       6.028  -6.049   1.817  0.00  0.00    -0.229 N 
ATOM     20  C   UNL     1       7.178  -6.407   2.421  0.00  0.00    +0.267 C 
ATOM     21  O   UNL     1       7.149  -7.044   3.457  0.00  0.00    -0.268 OA
ATOM     22  H   UNL     1       6.051  -5.542   0.991  0.00  0.00    +0.173 HD
BRANCH  20  23
ATOM     23  C   UNL     1       8.465  -6.029   1.829  0.00  0.00    +0.078 A 
ATOM     24  C   UNL     1       9.748  -6.299   2.280  0.00  0.00    -0.031 A 
ATOM     25  C   UNL     1      10.770  -5.809   1.503  0.00  0.00    +0.011 A 
ATOM     26  C   UNL     1      10.467  -5.114   0.379  0.00  0.00    +0.046 A 
ATOM     27  S   UNL     1       8.788  -5.109   0.336  0.00  0.00    -0.092 S 
ATOM     28  C   UNL     1      10.005  -7.079   3.544  0.00  0.00    +0.045 C 
ENDBRANCH  20  23
ENDBRANCH   8  19
TORSDOF 5
