REMARK  Name = ZINC02284287
REMARK  8 active torsions:
REMARK  status: ('A' for Active; 'I' for Inactive)
REMARK    1  A    between atoms: C_4  and  C_7
REMARK    2  A    between atoms: C_8  and  C_9
REMARK    3  A    between atoms: N_10  and  N_11
REMARK    4  A    between atoms: C_12  and  C_14
REMARK    5  A    between atoms: C_14  and  S_15
REMARK    6  A    between atoms: S_15  and  C_16
REMARK    7  A    between atoms: C_19  and  C_28
REMARK    8  A    between atoms: N_20  and  C_21
REMARK                            x       y       z     vdW  Elec       q    Type
REMARK                         _______ _______ _______ _____ _____    ______ ____
ROOT
ATOM      1  C   UNL     1      -5.179   8.485   0.073  0.00  0.00    +0.197 A 
ATOM      2  N   UNL     1      -6.271   7.753   0.074  0.00  0.00    -0.122 NA
ATOM      3  N   UNL     1      -7.310   8.508   0.084  0.00  0.00    -0.128 NA
ATOM      4  C   UNL     1      -6.949   9.771   0.089  0.00  0.00    +0.169 A 
ATOM      5  N   UNL     1      -5.571   9.796   0.087  0.00  0.00    -0.270 N 
ENDROOT
BRANCH   5   6
ATOM      6  C   UNL     1      -4.744  10.928   0.096  0.00  0.00    +0.051 A 
ATOM      7  C   UNL     1      -4.744  11.781   1.191  0.00  0.00    +0.028 A 
ATOM      8  C   UNL     1      -3.924  12.893   1.199  0.00  0.00    +0.022 A 
ATOM      9  C   UNL     1      -3.112  13.163   0.112  0.00  0.00    +0.041 A 
ATOM     10  C   UNL     1      -3.114  12.317  -0.984  0.00  0.00    +0.022 A 
ATOM     11  C   UNL     1      -3.928  11.201  -0.994  0.00  0.00    +0.028 A 
ATOM     12 CL   UNL     1      -2.088  14.565   0.122  0.00  0.00    -0.084 Cl
ENDBRANCH   5   6
BRANCH   4  13
ATOM     13  C   UNL     1      -7.849  10.943   0.100  0.00  0.00    +0.020 A 
ATOM     14  C   UNL     1      -7.352  12.211  -0.203  0.00  0.00    +0.013 A 
ATOM     15  C   UNL     1      -8.198  13.300  -0.196  0.00  0.00    +0.021 A 
ATOM     16  C   UNL     1      -9.537  13.139   0.120  0.00  0.00    +0.041 A 
ATOM     17  C   UNL     1     -10.035  11.884   0.427  0.00  0.00    +0.021 A 
ATOM     18  C   UNL     1      -9.199  10.786   0.419  0.00  0.00    +0.013 A 
ATOM     19 CL   UNL     1     -10.594  14.516   0.134  0.00  0.00    -0.084 Cl
ENDBRANCH   4  13
BRANCH   1  20
ATOM     20  S   UNL     1      -3.521   7.890   0.062  0.00  0.00    -0.076 S 
BRANCH  20  21
ATOM     21  C   UNL     1      -3.828   6.106   0.053  0.00  0.00    +0.174 C 
BRANCH  21  23
ATOM     22  N   UNL     1      -2.494   4.023   0.036  0.00  0.00    -0.206 N 
ATOM     23  C   UNL     1      -2.512   5.370   0.043  0.00  0.00    +0.242 C 
ATOM     24  O   UNL     1      -1.470   5.991   0.042  0.00  0.00    -0.273 OA
ATOM     25  H   UNL     1      -3.328   3.526   0.037  0.00  0.00    +0.177 HD
BRANCH  22  27
ATOM     26  C   UNL     1      -1.254   2.037   0.019  0.00  0.00    +0.130 C 
ATOM     27  N   UNL     1      -1.272   3.339   0.026  0.00  0.00    -0.188 NA
BRANCH  26  29
ATOM     28  C   UNL     1       0.002  -0.004   0.002  0.00  0.00    +0.009 C 
ATOM     29  C   UNL     1      -0.016   1.344   0.009  0.00  0.00    +0.022 C 
BRANCH  28  33
ATOM     30  C   UNL     1       3.704  -2.075  -0.045  0.00  0.00    +0.000 A 
ATOM     31  C   UNL     1       2.517  -2.787  -0.037  0.00  0.00    +0.001 A 
ATOM     32  C   UNL     1       1.310  -2.121  -0.022  0.00  0.00    +0.008 A 
ATOM     33  C   UNL     1       1.287  -0.723  -0.014  0.00  0.00    -0.025 A 
ATOM     34  C   UNL     1       2.490  -0.011  -0.028  0.00  0.00    +0.008 A 
ATOM     35  C   UNL     1       3.689  -0.691  -0.037  0.00  0.00    +0.001 A 
ENDBRANCH  28  33
ENDBRANCH  26  29
ENDBRANCH  22  27
ENDBRANCH  21  23
ENDBRANCH  20  21
ENDBRANCH   1  20
TORSDOF 8
