REMARK  Name = ZINC54581136
REMARK  11 active torsions:
REMARK  status: ('A' for Active; 'I' for Inactive)
REMARK    1  A    between atoms: C_1  and  C_2
REMARK    2  A    between atoms: C_2  and  C_4
REMARK    3  A    between atoms: C_2  and  N_15
REMARK    4  A    between atoms: C_7  and  S_10
REMARK    5  A    between atoms: S_10  and  N_13
REMARK    6  A    between atoms: N_13  and  C_14
REMARK    7  A    between atoms: N_18  and  C_19
REMARK    8  A    between atoms: C_19  and  C_20
REMARK    9  A    between atoms: C_20  and  C_21
REMARK   10  A    between atoms: C_21  and  C_22
REMARK   11  A    between atoms: C_21  and  C_23
REMARK                            x       y       z     vdW  Elec       q    Type
REMARK                         _______ _______ _______ _____ _____    ______ ____
ROOT
ATOM      1  C   UNL     1      -0.019   1.526   0.010  0.00  0.00    +0.033 C 
ATOM      2  C   UNL     1       0.002  -0.004   0.002  0.00  0.00    +0.102 C 
ENDROOT
BRANCH   2   3
ATOM      3  C   UNL     1       0.731  -0.503   1.223  0.00  0.00    -0.027 A 
ATOM      4  C   UNL     1       0.081  -0.558   2.442  0.00  0.00    +0.007 A 
ATOM      5  C   UNL     1       0.749  -1.016   3.562  0.00  0.00    +0.029 A 
ATOM      6  C   UNL     1       2.068  -1.420   3.463  0.00  0.00    +0.105 A 
ATOM      7  C   UNL     1       2.718  -1.365   2.244  0.00  0.00    +0.029 A 
ATOM      8  C   UNL     1       2.048  -0.911   1.123  0.00  0.00    +0.007 A 
BRANCH   6   9
ATOM      9  S   UNL     1       2.921  -2.002   4.890  0.00  0.00    +0.058 S 
ATOM     10  O   UNL     1       4.306  -1.804   4.645  0.00  0.00    -0.153 OA
ATOM     11  O   UNL     1       2.259  -1.441   6.016  0.00  0.00    -0.153 OA
BRANCH   9  12
ATOM     12  N   UNL     1       2.683  -3.639   4.969  0.00  0.00    -0.193 NA
ATOM     13  C   UNL     1       3.227  -4.509   3.924  0.00  0.00    +0.127 C 
ATOM     14  H   UNL     1       2.183  -4.022   5.707  0.00  0.00    +0.148 HD
ENDBRANCH   9  12
ENDBRANCH   6   9
ENDBRANCH   2   3
BRANCH   2  15
ATOM     15  N   UNL     1      -1.372  -0.511   0.012  0.00  0.00    -0.293 N 
ATOM     16  C   UNL     1      -2.051  -0.643  -1.145  0.00  0.00    +0.300 C 
ATOM     17  O   UNL     1      -1.522  -0.341  -2.197  0.00  0.00    -0.253 OA
ATOM     18  N   UNL     1      -3.315  -1.109  -1.135  0.00  0.00    -0.299 N 
ATOM     19  H   UNL     1      -1.794  -0.752   0.852  0.00  0.00    +0.151 HD
ATOM     20  H   UNL     1      -3.737  -1.350  -0.295  0.00  0.00    +0.150 HD
BRANCH  18  21
ATOM     21  C   UNL     1      -4.053  -1.252  -2.393  0.00  0.00    +0.106 C 
BRANCH  21  22
ATOM     22  C   UNL     1      -5.453  -1.797  -2.104  0.00  0.00    +0.022 C 
BRANCH  22  23
ATOM     23  C   UNL     1      -6.223  -1.947  -3.417  0.00  0.00    -0.016 C 
ATOM     24  C   UNL     1      -5.547  -3.008  -4.287  0.00  0.00    +0.007 C 
ATOM     25  C   UNL     1      -7.662  -2.372  -3.119  0.00  0.00    +0.007 C 
ENDBRANCH  22  23
ENDBRANCH  21  22
ENDBRANCH  18  21
ENDBRANCH   2  15
TORSDOF 7
