REMARK  Name = ZINC15968081
REMARK  7 active torsions:
REMARK  status: ('A' for Active; 'I' for Inactive)
REMARK    1  A    between atoms: C_1  and  C_2
REMARK    2  A    between atoms: C_2  and  C_3
REMARK    3  A    between atoms: C_14  and  C_17
REMARK    4  A    between atoms: C_17  and  C_18
REMARK    5  A    between atoms: N_23  and  C_26
REMARK    6  A    between atoms: C_26  and  C_27
REMARK    7  A    between atoms: C_27  and  C_28
REMARK                            x       y       z     vdW  Elec       q    Type
REMARK                         _______ _______ _______ _____ _____    ______ ____
ROOT
ATOM      1  C   UNL     1      -1.412  -0.526   0.013  0.00  0.00    -0.047 A 
ATOM      2  C   UNL     1      -2.053  -0.767   1.214  0.00  0.00    +0.005 A 
ATOM      3  C   UNL     1      -3.347  -1.243   1.230  0.00  0.00    +0.024 A 
ATOM      4  C   UNL     1      -4.019  -1.486   0.034  0.00  0.00    +0.039 A 
ATOM      5  C   UNL     1      -3.363  -1.242  -1.169  0.00  0.00    +0.004 A 
ATOM      6  C   UNL     1      -2.074  -0.759  -1.179  0.00  0.00    +0.011 A 
ATOM      7  C   UNL     1      -4.341  -1.605  -2.250  0.00  0.00    +0.136 C 
ATOM      8  C   UNL     1      -4.636  -0.414  -3.170  0.00  0.00    +0.122 C 
ATOM      9  C   UNL     1      -4.812  -1.043  -4.580  0.00  0.00    +0.107 C 
ATOM     10  C   UNL     1      -4.608  -2.558  -4.366  0.00  0.00    +0.076 C 
ATOM     11  N   UNL     1      -3.812  -2.669  -3.123  0.00  0.00    -0.295 NA
ATOM     12  C   UNL     1      -6.263  -0.765  -4.905  0.00  0.00    +0.227 C 
ATOM     13  O   UNL     1      -6.826  -1.090  -5.928  0.00  0.00    -0.275 OA
ATOM     14  N   UNL     1      -6.829  -0.106  -3.888  0.00  0.00    -0.241 N 
ATOM     15  C   UNL     1      -6.000   0.154  -2.851  0.00  0.00    +0.228 C 
ATOM     16  O   UNL     1      -6.294   0.741  -1.832  0.00  0.00    -0.275 OA
ATOM     17  C   UNL     1      -5.578  -2.057  -1.523  0.00  0.00    +0.243 C 
ATOM     18  O   UNL     1      -6.615  -2.438  -2.025  0.00  0.00    -0.273 OA
ATOM     19  N   UNL     1      -5.310  -1.959  -0.207  0.00  0.00    -0.283 N 
ATOM     20  H   UNL     1      -2.833  -2.523  -3.317  0.00  0.00    +0.124 HD
ATOM     21  H   UNL     1      -5.942  -2.190   0.493  0.00  0.00    +0.155 HD
ENDROOT
BRANCH   1  23
ATOM     22  C   UNL     1      -0.019   1.526   0.010  0.00  0.00    +0.009 C 
ATOM     23  C   UNL     1       0.002  -0.004   0.002  0.00  0.00    +0.032 C 
ENDBRANCH   1  23
BRANCH  10  24
ATOM     24  C   UNL     1      -3.861  -3.167  -5.554  0.00  0.00    +0.115 C 
BRANCH  24  25
ATOM     25  C   UNL     1      -3.779  -4.662  -5.383  0.00  0.00    +0.212 C 
ATOM     26  O   UNL     1      -4.271  -5.189  -4.407  0.00  0.00    -0.276 OA
ATOM     27  N   UNL     1      -3.161  -5.414  -6.315  0.00  0.00    -0.329 N 
ATOM     28  H   UNL     1      -2.768  -4.994  -7.096  0.00  0.00    +0.145 HD
ATOM     29  H   UNL     1      -3.109  -6.377  -6.205  0.00  0.00    +0.145 HD
ENDBRANCH  24  25
ENDBRANCH  10  24
BRANCH  14  30
ATOM     30  C   UNL     1      -8.233   0.309  -3.896  0.00  0.00    +0.121 C 
BRANCH  30  31
ATOM     31  C   UNL     1      -9.097  -0.801  -3.293  0.00  0.00    +0.054 C 
BRANCH  31  32
ATOM     32  C   UNL     1     -10.542  -0.374  -3.302  0.00  0.00    -0.046 A 
ATOM     33  C   UNL     1     -11.067   0.311  -2.222  0.00  0.00    +0.004 A 
ATOM     34  C   UNL     1     -12.393   0.703  -2.230  0.00  0.00    +0.000 A 
ATOM     35  C   UNL     1     -13.193   0.410  -3.318  0.00  0.00    +0.000 A 
ATOM     36  C   UNL     1     -12.668  -0.274  -4.399  0.00  0.00    +0.000 A 
ATOM     37  C   UNL     1     -11.341  -0.661  -4.393  0.00  0.00    +0.004 A 
ENDBRANCH  31  32
ENDBRANCH  30  31
ENDBRANCH  14  30
TORSDOF 6
