REMARK  Name = ZINC60382931
REMARK  9 active torsions:
REMARK  status: ('A' for Active; 'I' for Inactive)
REMARK    1  A    between atoms: C_1  and  C_2
REMARK    2  A    between atoms: C_5  and  O_34
REMARK    3  A    between atoms: C_6  and  N_8
REMARK    4  A    between atoms: C_9  and  S_13
REMARK    5  A    between atoms: S_13  and  C_14
REMARK    6  A    between atoms: C_14  and  C_16
REMARK    7  A    between atoms: C_14  and  C_17
REMARK    8  A    between atoms: C_29  and  C_33
REMARK    9  A    between atoms: O_34  and  C_35
REMARK                            x       y       z     vdW  Elec       q    Type
REMARK                         _______ _______ _______ _____ _____    ______ ____
ROOT
ATOM      1  C   UNL     1       0.342  -0.587   5.895  0.00  0.00    +0.117 C 
ATOM      2  C   UNL     1       1.634  -1.273   6.343  0.00  0.00    +0.027 C 
ENDROOT
BRANCH   1   3
ATOM      3  C   UNL     1       0.324   0.831   6.406  0.00  0.00    +0.124 A 
ATOM      4  N   UNL     1      -0.305   1.111   7.576  0.00  0.00    -0.309 N 
ATOM      5  H   UNL     1      -0.735   0.394   8.068  0.00  0.00    +0.170 HD
ATOM      6  C   UNL     1      -0.345   2.363   8.068  0.00  0.00    +0.260 A 
ATOM      7  O   UNL     1      -0.914   2.598   9.120  0.00  0.00    -0.267 OA
ATOM      8  C   UNL     1       0.292   3.417   7.334  0.00  0.00    +0.075 A 
ATOM      9  C   UNL     1       0.375   4.837   7.670  0.00  0.00    -0.023 A 
ATOM     10  C   UNL     1       1.039   5.633   6.805  0.00  0.00    -0.004 A 
ATOM     11  S   UNL     1       1.584   4.551   5.511  0.00  0.00    -0.073 S 
ATOM     12  C   UNL     1       0.916   3.031   6.137  0.00  0.00    +0.116 A 
ATOM     13  N   UNL     1       0.918   1.769   5.717  0.00  0.00    -0.225 NA
ATOM     14  C   UNL     1       1.262   7.110   6.919  0.00  0.00    +0.046 C 
ATOM     15  C   UNL     1       0.304   7.664   7.984  0.00  0.00    -0.009 C 
ATOM     16  C   UNL     1       0.385   6.773   9.227  0.00  0.00    +0.008 C 
ATOM     17  C   UNL     1      -0.253   5.415   8.935  0.00  0.00    +0.037 C 
ATOM     18  C   UNL     1       0.710   9.094   8.346  0.00  0.00    +0.008 C 
ENDBRANCH   1   3
BRANCH   1  19
ATOM     19  S   UNL     1       0.259  -0.578   4.083  0.00  0.00    -0.073 S 
BRANCH  19  21
ATOM     20  N   UNL     1       0.052  -2.795   2.401  0.00  0.00    -0.184 N 
ATOM     21  C   UNL     1       0.140  -2.283   3.654  0.00  0.00    +0.215 A 
ATOM     22  N   UNL     1       0.119  -3.300   4.489  0.00  0.00    -0.101 NA
ATOM     23  N   UNL     1       0.025  -4.408   3.846  0.00  0.00    -0.022 NA
ATOM     24  N   UNL     1      -0.026  -4.188   2.577  0.00  0.00    -0.038 NA
BRANCH  20  30
ATOM     25  C   UNL     1       1.975   0.687  -0.492  0.00  0.00    +0.044 C 
ATOM     26  C   UNL     1       0.956  -0.394  -0.238  0.00  0.00    -0.048 A 
ATOM     27  C   UNL     1       0.007  -0.687  -1.200  0.00  0.00    +0.007 A 
ATOM     28  C   UNL     1      -0.930  -1.677  -0.973  0.00  0.00    +0.048 A 
ATOM     29  C   UNL     1      -0.919  -2.381   0.221  0.00  0.00    +0.146 A 
ATOM     30  C   UNL     1       0.037  -2.087   1.190  0.00  0.00    +0.112 A 
ATOM     31  C   UNL     1       0.977  -1.095   0.953  0.00  0.00    +0.035 A 
BRANCH  29  32
ATOM     32  O   UNL     1      -1.841  -3.355   0.446  0.00  0.00    -0.493 OA
ATOM     33  C   UNL     1      -2.791  -3.601  -0.592  0.00  0.00    +0.277 C 
ENDBRANCH  29  32
ENDBRANCH  20  30
ENDBRANCH  19  21
ENDBRANCH   1  19
TORSDOF 5
