REMARK  Name = ZINC09436145
REMARK  8 active torsions:
REMARK  status: ('A' for Active; 'I' for Inactive)
REMARK    1  A    between atoms: C_4  and  C_7
REMARK    2  A    between atoms: C_15  and  C_16
REMARK    3  A    between atoms: C_19  and  O_22
REMARK    4  A    between atoms: O_22  and  C_23
REMARK    5  A    between atoms: C_23  and  C_24
REMARK    6  A    between atoms: C_24  and  C_25
REMARK    7  A    between atoms: C_25  and  O_26
REMARK    8  A    between atoms: O_26  and  C_27
REMARK                            x       y       z     vdW  Elec       q    Type
REMARK                         _______ _______ _______ _____ _____    ______ ____
ROOT
ATOM      1  C   UNL     1       8.254  13.457  -0.234  0.00  0.00    +0.056 C 
ATOM      2  C   UNL     1       7.660  14.634  -0.527  0.00  0.00    +0.072 C 
ATOM      3  S   UNL     1       6.090  14.479   0.308  0.00  0.00    -0.062 S 
ATOM      4  C   UNL     1       6.310  12.899   0.958  0.00  0.00    +0.163 C 
ATOM      5  N   UNL     1       5.474  12.162   1.654  0.00  0.00    -0.154 NA
ATOM      6  C   UNL     1       5.801  10.892   1.950  0.00  0.00    +0.273 C 
ATOM      7  O   UNL     1       5.101  10.224   2.693  0.00  0.00    -0.268 OA
ATOM      8  C   UNL     1       7.036  10.328   1.351  0.00  0.00    +0.079 C 
ATOM      9  C   UNL     1       7.195   8.976   1.151  0.00  0.00    +0.024 C 
ATOM     10  C   UNL     1       8.093  11.309   0.974  0.00  0.00    +0.136 C 
ATOM     11  N   UNL     1       9.371  11.043   1.032  0.00  0.00    -0.284 NA
ATOM     12  N   UNL     1       7.579  12.554   0.547  0.00  0.00    -0.233 N 
ATOM     13  H   UNL     1       9.670  10.150   1.264  0.00  0.00    +0.188 HD
ENDROOT
BRANCH   1  17
ATOM     14  C   UNL     1      12.139  12.568  -1.703  0.00  0.00    +0.000 A 
ATOM     15  C   UNL     1      11.115  11.653  -1.868  0.00  0.00    +0.001 A 
ATOM     16  C   UNL     1       9.851  11.936  -1.393  0.00  0.00    +0.010 A 
ATOM     17  C   UNL     1       9.607  13.147  -0.745  0.00  0.00    -0.003 A 
ATOM     18  C   UNL     1      10.643  14.068  -0.586  0.00  0.00    +0.010 A 
ATOM     19  C   UNL     1      11.904  13.771  -1.060  0.00  0.00    +0.001 A 
ENDBRANCH   1  17
BRANCH   9  20
ATOM     20  C   UNL     1       6.066   8.067   1.362  0.00  0.00    -0.024 A 
ATOM     21  C   UNL     1       4.764   8.474   1.037  0.00  0.00    +0.011 A 
ATOM     22  C   UNL     1       3.711   7.619   1.237  0.00  0.00    +0.046 A 
ATOM     23  C   UNL     1       3.933   6.350   1.761  0.00  0.00    +0.121 A 
ATOM     24  C   UNL     1       5.221   5.942   2.090  0.00  0.00    +0.046 A 
ATOM     25  C   UNL     1       6.282   6.786   1.890  0.00  0.00    +0.011 A 
BRANCH  23  26
ATOM     26  O   UNL     1       2.886   5.508   1.957  0.00  0.00    -0.492 OA
BRANCH  26  27
ATOM     27  C   UNL     1       3.183   4.219   2.499  0.00  0.00    +0.232 C 
BRANCH  27  28
ATOM     28  C   UNL     1       1.889   3.418   2.648  0.00  0.00    +0.082 C 
BRANCH  28  29
ATOM     29  C   UNL     1       2.207   2.038   3.227  0.00  0.00    +0.232 C 
BRANCH  29  30
ATOM     30  O   UNL     1       0.997   1.290   3.366  0.00  0.00    -0.492 OA
BRANCH  30  31
ATOM     31  C   UNL     1       1.104   0.032   3.872  0.00  0.00    +0.121 A 
ATOM     32  C   UNL     1       2.349  -0.472   4.221  0.00  0.00    +0.047 A 
ATOM     33  C   UNL     1       2.455  -1.748   4.738  0.00  0.00    +0.023 A 
ATOM     34  C   UNL     1       1.323  -2.527   4.899  0.00  0.00    +0.041 A 
ATOM     35  C   UNL     1       0.081  -2.028   4.546  0.00  0.00    +0.023 A 
ATOM     36  C   UNL     1      -0.030  -0.750   4.033  0.00  0.00    +0.047 A 
ATOM     37 CL   UNL     1       1.459  -4.133   5.544  0.00  0.00    -0.084 Cl
ENDBRANCH  30  31
ENDBRANCH  29  30
ENDBRANCH  28  29
ENDBRANCH  27  28
ENDBRANCH  26  27
ENDBRANCH  23  26
ENDBRANCH   9  20
TORSDOF 8
