REMARK  Name = ZINC46584327
REMARK  7 active torsions:
REMARK  status: ('A' for Active; 'I' for Inactive)
REMARK    1  A    between atoms: C_3  and  C_6
REMARK    2  A    between atoms: C_8  and  C_33
REMARK    3  A    between atoms: C_9  and  N_11
REMARK    4  A    between atoms: N_14  and  C_17
REMARK    5  A    between atoms: C_17  and  C_18
REMARK    6  A    between atoms: N_20  and  C_21
REMARK    7  A    between atoms: C_22  and  C_30
REMARK                            x       y       z     vdW  Elec       q    Type
REMARK                         _______ _______ _______ _____ _____    ______ ____
ROOT
ATOM      1  C   UNL     1       9.521  -3.363  -2.078  0.00  0.00    +0.181 C 
ENDROOT
BRANCH   1   5
ATOM      2  N   UNL     1       6.703  -0.982  -0.077  0.00  0.00    -0.297 N 
ATOM      3  C   UNL     1       8.069  -0.448  -0.189  0.00  0.00    +0.123 C 
ATOM      4  C   UNL     1       8.786  -1.181  -1.328  0.00  0.00    +0.104 C 
ATOM      5  N   UNL     1       8.701  -2.630  -1.103  0.00  0.00    -0.291 NA
ATOM      6  C   UNL     1       7.308  -3.094  -1.134  0.00  0.00    +0.104 C 
ATOM      7  C   UNL     1       6.531  -2.439   0.020  0.00  0.00    +0.123 C 
BRANCH   2  11
ATOM      8  C   UNL     1       3.928   1.100  -0.681  0.00  0.00    +0.266 A 
ATOM      9  N   UNL     1       3.987   1.188   0.625  0.00  0.00    -0.194 NA
ATOM     10  C   UNL     1       5.028   0.430   1.063  0.00  0.00    +0.201 A 
ATOM     11  C   UNL     1       5.614  -0.138  -0.058  0.00  0.00    +0.228 A 
ATOM     12  O   UNL     1       4.910   0.289  -1.122  0.00  0.00    -0.417 OA
BRANCH   8  15
ATOM     13  C   UNL     1       1.241   3.019  -2.249  0.00  0.00    +0.042 A 
ATOM     14  C   UNL     1       1.941   2.599  -1.103  0.00  0.00    +0.055 A 
ATOM     15  C   UNL     1       2.939   1.776  -1.533  0.00  0.00    +0.189 A 
ATOM     16  O   UNL     1       2.861   1.691  -2.876  0.00  0.00    -0.458 OA
ATOM     17  C   UNL     1       1.836   2.441  -3.312  0.00  0.00    +0.196 A 
ENDBRANCH   8  15
BRANCH  10  18
ATOM     18  C   UNL     1       5.440   0.253   2.423  0.00  0.00    +0.124 C 
ATOM     19  N   UNL     1       5.766   0.112   3.502  0.00  0.00    -0.189 NA
ENDBRANCH  10  18
ENDBRANCH   2  11
ENDBRANCH   1   5
BRANCH   1  20
ATOM     20  C   UNL     1       9.609  -4.811  -1.673  0.00  0.00    +0.232 C 
ATOM     21  O   UNL     1       9.044  -5.196  -0.671  0.00  0.00    -0.274 OA
ATOM     22  N   UNL     1      10.315  -5.680  -2.424  0.00  0.00    -0.278 N 
ATOM     23  H   UNL     1      10.767  -5.372  -3.225  0.00  0.00    +0.155 HD
BRANCH  22  24
ATOM     24  C   UNL     1      10.395  -7.013  -2.051  0.00  0.00    +0.084 A 
ATOM     25  C   UNL     1      11.074  -8.037  -2.692  0.00  0.00    +0.068 A 
ATOM     26  C   UNL     1      11.001  -9.359  -2.092  0.00  0.00    -0.023 A 
ATOM     27  C   UNL     1      10.263  -9.413  -0.963  0.00  0.00    -0.004 A 
ATOM     28  S   UNL     1       9.699  -7.755  -0.715  0.00  0.00    -0.077 S 
ATOM     29  C   UNL     1       9.997 -10.622  -0.119  0.00  0.00    +0.043 C 
ATOM     30  C   UNL     1      10.377 -11.869  -0.931  0.00  0.00    +0.005 C 
ATOM     31  C   UNL     1      11.761 -11.656  -1.550  0.00  0.00    +0.005 C 
ATOM     32  C   UNL     1      11.681 -10.599  -2.653  0.00  0.00    +0.037 C 
BRANCH  25  33
ATOM     33  C   UNL     1      11.833  -7.798  -3.923  0.00  0.00    +0.244 C 
ATOM     34  O   UNL     1      13.008  -7.487  -3.862  0.00  0.00    -0.270 OA
ATOM     35  N   UNL     1      11.230  -7.922  -5.122  0.00  0.00    -0.325 N 
ATOM     36  H   UNL     1      10.293  -8.170  -5.170  0.00  0.00    +0.145 HD
ATOM     37  H   UNL     1      11.732  -7.763  -5.936  0.00  0.00    +0.145 HD
ENDBRANCH  25  33
ENDBRANCH  22  24
ENDBRANCH   1  20
TORSDOF 7
