REMARK  Name = ZINC05614304
REMARK  5 active torsions:
REMARK  status: ('A' for Active; 'I' for Inactive)
REMARK    1  A    between atoms: C_7  and  C_16
REMARK    2  A    between atoms: C_16  and  N_17
REMARK    3  A    between atoms: N_17  and  C_18
REMARK    4  A    between atoms: C_21  and  S_24
REMARK    5  A    between atoms: S_24  and  N_27
REMARK                            x       y       z     vdW  Elec       q    Type
REMARK                         _______ _______ _______ _____ _____    ______ ____
ROOT
ATOM      1  N   UNL     1       5.883   4.140   3.850  0.00  0.00    -0.340 N 
ATOM      2  H   UNL     1       6.401   3.897   4.633  0.00  0.00    +0.146 HD
ENDROOT
BRANCH   1   3
ATOM      3  C   UNL     1       5.653   3.198   2.845  0.00  0.00    +0.027 A 
ATOM      4  C   UNL     1       6.165   1.912   2.965  0.00  0.00    +0.025 A 
ATOM      5  C   UNL     1       5.936   0.984   1.969  0.00  0.00    +0.030 A 
ATOM      6  C   UNL     1       5.197   1.332   0.853  0.00  0.00    +0.109 A 
ATOM      7  C   UNL     1       4.691   2.613   0.728  0.00  0.00    +0.030 A 
ATOM      8  C   UNL     1       4.912   3.545   1.722  0.00  0.00    +0.025 A 
BRANCH   6   9
ATOM      9  S   UNL     1       4.907   0.144  -0.415  0.00  0.00    +0.075 S 
ATOM     10  O   UNL     1       5.951  -0.816  -0.319  0.00  0.00    -0.150 OA
ATOM     11  O   UNL     1       4.653   0.876  -1.607  0.00  0.00    -0.150 OA
BRANCH   9  12
ATOM     12  N   UNL     1       3.502  -0.645  -0.035  0.00  0.00    -0.184 N 
ATOM     13  C   UNL     1       2.303   0.046  -0.020  0.00  0.00    +0.235 A 
ATOM     14  N   UNL     1       1.165  -0.633  -0.013  0.00  0.00    -0.222 NA
ATOM     15  C   UNL     1       0.002  -0.004   0.002  0.00  0.00    +0.116 A 
ATOM     16  C   UNL     1      -0.017   1.382   0.010  0.00  0.00    +0.039 A 
ATOM     17  C   UNL     1       1.192   2.061   0.002  0.00  0.00    +0.116 A 
ATOM     18  N   UNL     1       2.320   1.371  -0.013  0.00  0.00    -0.222 NA
ATOM     19  H   UNL     1       3.519  -1.591   0.177  0.00  0.00    +0.177 HD
ENDBRANCH   9  12
ENDBRANCH   6   9
ENDBRANCH   1   3
BRANCH   1  20
ATOM     20  C   UNL     1       5.343   5.495   3.722  0.00  0.00    +0.138 C 
BRANCH  20  27
ATOM     21  C   UNL     1       8.940   7.783   3.914  0.00  0.00    +0.001 A 
ATOM     22  C   UNL     1       9.271   8.525   5.048  0.00  0.00    +0.002 A 
ATOM     23  C   UNL     1       8.469   8.557   6.142  0.00  0.00    +0.028 A 
ATOM     24  C   UNL     1       7.264   7.823   6.147  0.00  0.00    +0.072 A 
ATOM     25  C   UNL     1       6.918   7.044   4.954  0.00  0.00    +0.006 A 
ATOM     26  C   UNL     1       7.796   7.054   3.851  0.00  0.00    +0.010 A 
ATOM     27  C   UNL     1       5.731   6.308   4.930  0.00  0.00    -0.012 A 
ATOM     28  C   UNL     1       4.912   6.354   6.061  0.00  0.00    +0.006 A 
ATOM     29  C   UNL     1       3.695   5.644   6.114  0.00  0.00    +0.012 A 
ATOM     30  C   UNL     1       2.927   5.714   7.232  0.00  0.00    +0.021 A 
ATOM     31  C   UNL     1       3.314   6.476   8.336  0.00  0.00    +0.043 A 
ATOM     32  C   UNL     1       4.479   7.175   8.352  0.00  0.00    +0.048 A 
ATOM     33  C   UNL     1       5.323   7.151   7.221  0.00  0.00    +0.073 A 
ATOM     34  N   UNL     1       6.460   7.838   7.205  0.00  0.00    -0.247 NA
ATOM     35 CL   UNL     1       2.284   6.521   9.733  0.00  0.00    -0.083 Cl
ENDBRANCH  20  27
ENDBRANCH   1  20
TORSDOF 5
