REMARK  Name = ZINC40732269
REMARK  11 active torsions:
REMARK  status: ('A' for Active; 'I' for Inactive)
REMARK    1  A    between atoms: C_4  and  N_7
REMARK    2  A    between atoms: C_8  and  S_12
REMARK    3  A    between atoms: S_12  and  C_13
REMARK    4  A    between atoms: C_13  and  C_14
REMARK    5  A    between atoms: C_14  and  C_15
REMARK    6  A    between atoms: C_15  and  N_16
REMARK    7  A    between atoms: N_16  and  C_17
REMARK    8  A    between atoms: C_17  and  C_18
REMARK    9  A    between atoms: C_23  and  O_24
REMARK   10  A    between atoms: O_24  and  C_25
REMARK   11  A    between atoms: C_25  and  C_26
REMARK                            x       y       z     vdW  Elec       q    Type
REMARK                         _______ _______ _______ _____ _____    ______ ____
ROOT
ATOM      1  N   UNL     1       3.041  -7.286   4.146  0.00  0.00    +0.382 N 
ATOM      2  H   UNL     1       2.719  -6.797   4.968  0.00  0.00    -0.085 HD
ATOM      3  H   UNL     1       2.247  -7.609   3.614  0.00  0.00    -0.085 HD
ENDROOT
BRANCH   1   4
ATOM      4  C   UNL     1       3.848  -6.378   3.320  0.00  0.00    -0.081 C 
BRANCH   4   5
ATOM      5  C   UNL     1       2.995  -5.179   2.898  0.00  0.00    -0.008 C 
BRANCH   5   6
ATOM      6  C   UNL     1       3.835  -4.234   2.038  0.00  0.00    +0.075 C 
BRANCH   6   7
ATOM      7  S   UNL     1       2.824  -2.812   1.538  0.00  0.00    -0.084 S 
BRANCH   7   9
ATOM      8  N   UNL     1       3.624  -0.652  -0.037  0.00  0.00    -0.187 N 
ATOM      9  C   UNL     1       3.918  -1.831   0.567  0.00  0.00    +0.214 A 
ATOM     10  N   UNL     1       5.176  -2.102   0.291  0.00  0.00    -0.101 NA
ATOM     11  N   UNL     1       5.685  -1.178  -0.441  0.00  0.00    -0.022 NA
ATOM     12  N   UNL     1       4.809  -0.266  -0.689  0.00  0.00    -0.038 NA
BRANCH   8  16
ATOM     13  C   UNL     1      -0.017   1.379   0.010  0.00  0.00    +0.000 A 
ATOM     14  C   UNL     1       1.170   2.089   0.002  0.00  0.00    +0.002 A 
ATOM     15  C   UNL     1       2.377   1.419  -0.013  0.00  0.00    +0.028 A 
ATOM     16  C   UNL     1       2.399   0.031  -0.021  0.00  0.00    +0.070 A 
ATOM     17  C   UNL     1       1.207  -0.680  -0.013  0.00  0.00    +0.028 A 
ATOM     18  C   UNL     1       0.002  -0.004   0.002  0.00  0.00    +0.002 A 
ENDBRANCH   8  16
ENDBRANCH   7   9
ENDBRANCH   6   7
ENDBRANCH   5   6
ENDBRANCH   4   5
ENDBRANCH   1   4
BRANCH   1  19
ATOM     19  C   UNL     1       3.860  -8.437   4.551  0.00  0.00    -0.043 C 
BRANCH  19  20
ATOM     20  C   UNL     1       3.033  -9.368   5.398  0.00  0.00    -0.023 A 
ATOM     21  C   UNL     1       3.150  -9.339   6.775  0.00  0.00    +0.005 A 
ATOM     22  C   UNL     1       2.392 -10.193   7.553  0.00  0.00    +0.000 A 
ATOM     23  C   UNL     1       1.514 -11.080   6.957  0.00  0.00    +0.004 A 
ATOM     24  C   UNL     1       1.393 -11.114   5.581  0.00  0.00    +0.046 A 
ATOM     25  C   UNL     1       2.149 -10.253   4.798  0.00  0.00    +0.122 A 
BRANCH  25  26
ATOM     26  O   UNL     1       2.027 -10.280   3.445  0.00  0.00    -0.487 OA
BRANCH  26  27
ATOM     27  C   UNL     1       1.098 -11.216   2.895  0.00  0.00    +0.268 C 
BRANCH  27  28
ATOM     28  C   UNL     1       1.099 -11.103   1.393  0.00  0.00    +0.043 A 
ATOM     29  C   UNL     1       0.236 -10.221   0.764  0.00  0.00    +0.131 A 
ATOM     30  C   UNL     1       0.238 -10.118  -0.617  0.00  0.00    +0.039 A 
ATOM     31  C   UNL     1       1.102 -10.895  -1.367  0.00  0.00    +0.004 A 
ATOM     32  C   UNL     1       1.963 -11.775  -0.739  0.00  0.00    +0.020 A 
ATOM     33  C   UNL     1       1.966 -11.875   0.641  0.00  0.00    +0.050 A 
ATOM     34 CL   UNL     1       3.053 -12.975   1.429  0.00  0.00    -0.083 Cl
ATOM     35  F   UNL     1      -0.608  -9.463   1.497  0.00  0.00    -0.205 F 
ENDBRANCH  27  28
ENDBRANCH  26  27
ENDBRANCH  25  26
ENDBRANCH  19  20
ENDBRANCH   1  19
TORSDOF 11
