REMARK  Name = ZINC01065845
REMARK  6 active torsions:
REMARK  status: ('A' for Active; 'I' for Inactive)
REMARK    1  A    between atoms: C_1  and  C_2
REMARK    2  A    between atoms: C_2  and  O_3
REMARK    3  A    between atoms: O_3  and  C_4
REMARK    4  A    between atoms: C_4  and  C_6
REMARK    5  A    between atoms: C_6  and  N_47
REMARK    6  A    between atoms: N_14  and  C_18
REMARK                            x       y       z     vdW  Elec       q    Type
REMARK                         _______ _______ _______ _____ _____    ______ ____
ROOT
ATOM      1  C   UNL     1      -1.400  -2.699   1.117  0.00  0.00    +0.098 C 
ATOM      2  C   UNL     1      -2.135  -1.989   2.231  0.00  0.00    +0.094 C 
ATOM      3  C   UNL     1      -3.544  -1.615   1.784  0.00  0.00    +0.034 C 
ATOM      4  C   UNL     1      -4.280  -0.924   2.934  0.00  0.00    +0.003 C 
ATOM      5  C   UNL     1      -3.510   0.331   3.349  0.00  0.00    +0.000 C 
ATOM      6  C   UNL     1      -2.107  -0.061   3.817  0.00  0.00    +0.003 C 
ATOM      7  C   UNL     1      -1.362  -0.749   2.670  0.00  0.00    +0.034 C 
ATOM      8  N   UNL     1      -2.187  -2.977   3.315  0.00  0.00    -0.269 N 
ATOM      9  C   UNL     1      -1.559  -4.081   2.872  0.00  0.00    +0.143 C 
ATOM     10  S   UNL     1      -1.367  -5.503   3.805  0.00  0.00    -0.018 S 
ATOM     11  N   UNL     1      -1.102  -3.947   1.621  0.00  0.00    -0.285 N 
ATOM     12  H   UNL     1      -0.624  -4.636   1.133  0.00  0.00    +0.155 HD
ATOM     13  N   UNL     1      -1.079  -2.278  -0.100  0.00  0.00    -0.364 N 
ATOM     14  H   UNL     1      -0.639  -2.924  -0.766  0.00  0.00    +0.161 HD
ENDROOT
BRANCH   8  15
ATOM     15  C   UNL     1      -2.772  -2.801   4.574  0.00  0.00    +0.036 A 
ATOM     16  C   UNL     1      -3.377  -1.593   4.897  0.00  0.00    +0.024 A 
ATOM     17  C   UNL     1      -3.959  -1.424   6.138  0.00  0.00    +0.017 A 
ATOM     18  C   UNL     1      -3.931  -2.453   7.063  0.00  0.00    +0.018 A 
ATOM     19  C   UNL     1      -3.324  -3.655   6.746  0.00  0.00    +0.017 A 
ATOM     20  C   UNL     1      -2.745  -3.832   5.504  0.00  0.00    +0.024 A 
ATOM     21 BR   UNL     1      -4.723  -2.216   8.764  0.00  0.00    -0.050 Br
ENDBRANCH   8  15
BRANCH  13  22
ATOM     22  C   UNL     1      -1.359  -0.857  -0.502  0.00  0.00    +0.234 C 
BRANCH  22  23
ATOM     23  C   UNL     1      -0.045  -0.160  -0.743  0.00  0.00    +0.326 C 
ATOM     24  O   UNL     1       0.994  -0.750  -0.563  0.00  0.00    -0.249 OA
BRANCH  23  25
ATOM     25  O   UNL     1      -0.029   1.116  -1.159  0.00  0.00    -0.464 OA
BRANCH  25  27
ATOM     26  C   UNL     1       1.091   3.169  -1.840  0.00  0.00    +0.048 C 
ATOM     27  C   UNL     1       1.273   1.724  -1.371  0.00  0.00    +0.229 C 
ENDBRANCH  25  27
ENDBRANCH  23  25
ENDBRANCH  22  23
ENDBRANCH  13  22
TORSDOF 5
