REMARK  Name = ZINC21241918
REMARK  5 active torsions:
REMARK  status: ('A' for Active; 'I' for Inactive)
REMARK    1  A    between atoms: C_1  and  C_2
REMARK    2  A    between atoms: C_9  and  C_16
REMARK    3  A    between atoms: C_11  and  O_12
REMARK    4  A    between atoms: C_16  and  S_17
REMARK    5  A    between atoms: S_17  and  C_18
REMARK                            x       y       z     vdW  Elec       q    Type
REMARK                         _______ _______ _______ _____ _____    ______ ____
ROOT
ATOM      1  C   UNL     1      -2.193   1.470   0.609  0.00  0.00    +0.109 C 
ATOM      2  C   UNL     1      -2.168  -0.036   0.609  0.00  0.00    +0.214 C 
ATOM      3  O   UNL     1      -3.058  -0.658   1.150  0.00  0.00    -0.276 OA
ATOM      4  N   UNL     1      -1.156  -0.694   0.009  0.00  0.00    -0.286 N 
ATOM      5  C   UNL     1      -1.081  -2.085   0.091  0.00  0.00    +0.037 A 
ATOM      6  C   UNL     1       0.164  -2.708   0.166  0.00  0.00    +0.024 A 
ATOM      7  C   UNL     1       0.253  -4.066   0.253  0.00  0.00    +0.013 A 
ATOM      8  C   UNL     1      -0.913  -4.841   0.254  0.00  0.00    +0.022 A 
ATOM      9  C   UNL     1      -0.848  -6.301   0.341  0.00  0.00    -0.020 A 
ATOM     10  C   UNL     1      -2.014  -6.998   0.339  0.00  0.00    +0.092 A 
ATOM     11  C   UNL     1      -3.242  -6.309   0.254  0.00  0.00    +0.285 A 
ATOM     12  O   UNL     1      -3.295  -4.971   0.176  0.00  0.00    -0.425 OA
ATOM     13  C   UNL     1      -2.173  -4.219   0.173  0.00  0.00    +0.141 A 
ATOM     14  C   UNL     1      -2.246  -2.837   0.092  0.00  0.00    +0.070 A 
ATOM     15  H   UNL     1      -0.388  -0.134  -0.545  0.00  0.00    +0.155 HD
ENDROOT
BRANCH  11  16
ATOM     16  O   UNL     1      -4.280  -6.946   0.253  0.00  0.00    -0.480 OA
ATOM     17  H   UNL     1      -5.246  -6.423   0.188  0.00  0.00    +0.295 HD
ENDBRANCH  11  16
BRANCH   9  18
ATOM     18  C   UNL     1       0.478  -7.013   0.429  0.00  0.00    +0.113 C 
BRANCH  18  19
ATOM     19  S   UNL     1       1.072  -7.396  -1.242  0.00  0.00    -0.081 S 
BRANCH  19  20
ATOM     20  C   UNL     1       2.609  -8.214  -0.971  0.00  0.00    +0.196 A 
ATOM     21  N   UNL     1       3.161  -8.468   0.194  0.00  0.00    -0.122 NA
ATOM     22  N   UNL     1       4.282  -9.078   0.033  0.00  0.00    -0.127 NA
ATOM     23  C   UNL     1       4.513  -9.251  -1.256  0.00  0.00    +0.180 A 
ATOM     24  N   UNL     1       3.442  -8.705  -1.931  0.00  0.00    -0.275 N 
ATOM     25  C   UNL     1       3.402  -8.728  -3.299  0.00  0.00    +0.115 A 
ATOM     26  C   UNL     1       4.403  -9.295  -4.003  0.00  0.00    +0.059 A 
ATOM     27  C   UNL     1       5.507  -9.865  -3.341  0.00  0.00    +0.045 A 
ATOM     28  C   UNL     1       5.566  -9.845  -1.982  0.00  0.00    +0.087 A 
ATOM     29 CL   UNL     1       6.920 -10.545  -1.151  0.00  0.00    -0.080 Cl
ATOM     30 CL   UNL     1       4.330  -9.320  -5.737  0.00  0.00    -0.082 Cl
ENDBRANCH  19  20
ENDBRANCH  18  19
ENDBRANCH   9  18
TORSDOF 4
