REMARK  Name = ZINC19125609
REMARK  7 active torsions:
REMARK  status: ('A' for Active; 'I' for Inactive)
REMARK    1  A    between atoms: C_1  and  C_2
REMARK    2  A    between atoms: C_9  and  O_33
REMARK    3  A    between atoms: C_18  and  C_19
REMARK    4  A    between atoms: C_18  and  N_60
REMARK    5  A    between atoms: C_19  and  C_21
REMARK    6  A    between atoms: C_19  and  O_32
REMARK    7  A    between atoms: C_22  and  C_31
REMARK                            x       y       z     vdW  Elec       q    Type
REMARK                         _______ _______ _______ _____ _____    ______ ____
ROOT
ATOM      1  C   UNL     1      -5.079   5.861   7.486  0.00  0.00    +0.045 C 
ATOM      2  C   UNL     1      -4.729   6.871   6.423  0.00  0.00    -0.029 A 
ATOM      3  C   UNL     1      -4.250   6.448   5.200  0.00  0.00    +0.050 A 
ATOM      4  C   UNL     1      -3.926   7.377   4.216  0.00  0.00    +0.127 A 
ATOM      5  C   UNL     1      -4.083   8.728   4.470  0.00  0.00    +0.024 A 
ATOM      6  C   UNL     1      -4.567   9.147   5.698  0.00  0.00    +0.030 A 
ATOM      7  C   UNL     1      -4.890   8.222   6.673  0.00  0.00    +0.044 A 
ATOM      8 CL   UNL     1      -5.495   8.756   8.210  0.00  0.00    -0.083 Cl
ATOM      9  C   UNL     1      -3.733   9.767   3.435  0.00  0.00    +0.152 C 
ATOM     10  C   UNL     1      -3.657   9.113   2.053  0.00  0.00    +0.084 C 
ATOM     11  C   UNL     1      -2.801   7.847   2.163  0.00  0.00    +0.110 C 
ATOM     12  O   UNL     1      -3.461   6.921   3.023  0.00  0.00    -0.485 OA
ATOM     13  C   UNL     1      -1.430   8.205   2.740  0.00  0.00    +0.029 C 
ATOM     14  C   UNL     1      -0.557   6.948   2.788  0.00  0.00    -0.075 C 
ATOM     15  C   UNL     1      -1.716   6.001   0.881  0.00  0.00    -0.075 C 
ATOM     16  C   UNL     1      -2.623   7.229   0.775  0.00  0.00    +0.029 C 
ATOM     17  N   UNL     1      -0.402   6.420   1.415  0.00  0.00    +0.382 N 
ATOM     18  H   UNL     1      -0.019   7.160   0.815  0.00  0.00    -0.082 HD
ENDROOT
BRANCH   9  19
ATOM     19  O   UNL     1      -4.735  10.786   3.425  0.00  0.00    -0.387 OA
ATOM     20  H   UNL     1      -4.836  11.246   4.270  0.00  0.00    +0.210 HD
ENDBRANCH   9  19
BRANCH  17  21
ATOM     21  C   UNL     1       0.530   5.274   1.418  0.00  0.00    -0.042 C 
BRANCH  21  22
ATOM     22  C   UNL     1       0.580   4.669   0.014  0.00  0.00    +0.130 C 
BRANCH  22  23
ATOM     23  C   UNL     1       1.571   3.534  -0.009  0.00  0.00    +0.007 A 
ATOM     24  C   UNL     1       2.909   3.642  -0.010  0.00  0.00    +0.019 A 
ATOM     25  N   UNL     1       3.478   2.398  -0.034  0.00  0.00    -0.358 N 
ATOM     26  H   UNL     1       4.432   2.221  -0.039  0.00  0.00    +0.166 HD
ATOM     27  C   UNL     1       2.495   1.434  -0.048  0.00  0.00    +0.047 A 
ATOM     28  C   UNL     1       1.258   2.103  -0.033  0.00  0.00    +0.005 A 
ATOM     29  C   UNL     1       0.070   1.370  -0.042  0.00  0.00    +0.010 A 
ATOM     30  C   UNL     1       0.115   0.005  -0.067  0.00  0.00    +0.001 A 
ATOM     31  C   UNL     1       1.333  -0.660  -0.082  0.00  0.00    +0.002 A 
ATOM     32  C   UNL     1       2.518   0.043  -0.073  0.00  0.00    +0.026 A 
ATOM     33  C   UNL     1       3.672   4.942   0.011  0.00  0.00    +0.063 C 
ENDBRANCH  22  23
BRANCH  22  34
ATOM     34  O   UNL     1       0.982   5.670  -0.922  0.00  0.00    -0.389 OA
ATOM     35  H   UNL     1       1.853   6.049  -0.744  0.00  0.00    +0.210 HD
ENDBRANCH  22  34
ENDBRANCH  21  22
ENDBRANCH  17  21
TORSDOF 5
