REMARK  Name = ZINC05883867
REMARK  10 active torsions:
REMARK  status: ('A' for Active; 'I' for Inactive)
REMARK    1  A    between atoms: C_1  and  C_2
REMARK    2  A    between atoms: C_2  and  C_3
REMARK    3  A    between atoms: C_3  and  O_4
REMARK    4  A    between atoms: O_4  and  C_5
REMARK    5  A    between atoms: C_8  and  C_11
REMARK    6  A    between atoms: C_14  and  C_25
REMARK    7  A    between atoms: C_20  and  N_24
REMARK    8  A    between atoms: C_21  and  C_22
REMARK    9  A    between atoms: C_29  and  O_31
REMARK   10  A    between atoms: O_31  and  C_32
REMARK                            x       y       z     vdW  Elec       q    Type
REMARK                         _______ _______ _______ _____ _____    ______ ____
ROOT
ATOM      1  C   UNL     1       3.404  -4.490   5.656  0.00  0.00    +0.102 C 
ATOM      2  C   UNL     1       4.421  -5.433   5.067  0.00  0.00    +0.054 A 
ATOM      3  C   UNL     1       5.595  -5.159   4.449  0.00  0.00    +0.074 A 
ATOM      4  N   UNL     1       6.153  -6.355   4.093  0.00  0.00    -0.273 N 
ATOM      5  H   UNL     1       6.998  -6.476   3.632  0.00  0.00    +0.189 HD
ATOM      6  N   UNL     1       5.287  -7.377   4.511  0.00  0.00    -0.135 NA
ATOM      7  C   UNL     1       4.256  -6.832   5.092  0.00  0.00    +0.245 A 
ATOM      8  O   UNL     1       3.164  -7.418   5.655  0.00  0.00    -0.421 OA
ATOM      9  C   UNL     1       2.374  -6.647   6.428  0.00  0.00    +0.201 C 
ATOM     10  C   UNL     1       2.433  -5.299   6.478  0.00  0.00    +0.098 C 
ENDROOT
BRANCH   1  14
ATOM     11  C   UNL     1       1.313  -2.479   2.518  0.00  0.00    +0.121 A 
ATOM     12  C   UNL     1       1.981  -1.746   3.489  0.00  0.00    +0.046 A 
ATOM     13  C   UNL     1       2.656  -2.399   4.503  0.00  0.00    +0.008 A 
ATOM     14  C   UNL     1       2.667  -3.780   4.550  0.00  0.00    -0.034 A 
ATOM     15  C   UNL     1       2.002  -4.513   3.583  0.00  0.00    +0.008 A 
ATOM     16  C   UNL     1       1.321  -3.865   2.571  0.00  0.00    +0.046 A 
BRANCH  11  17
ATOM     17  O   UNL     1       0.648  -1.839   1.520  0.00  0.00    -0.492 OA
BRANCH  17  18
ATOM     18  C   UNL     1       0.684  -0.411   1.529  0.00  0.00    +0.229 C 
BRANCH  18  20
ATOM     19  C   UNL     1      -0.077   1.655   0.348  0.00  0.00    +0.007 C 
ATOM     20  C   UNL     1      -0.114   0.126   0.339  0.00  0.00    +0.038 C 
ENDBRANCH  18  20
ENDBRANCH  17  18
ENDBRANCH  11  17
ENDBRANCH   1  14
BRANCH   3  21
ATOM     21  C   UNL     1       6.167  -3.817   4.204  0.00  0.00    +0.004 A 
ATOM     22  C   UNL     1       6.210  -2.876   5.234  0.00  0.00    +0.010 A 
ATOM     23  C   UNL     1       6.744  -1.625   5.002  0.00  0.00    +0.004 A 
ATOM     24  C   UNL     1       7.237  -1.299   3.752  0.00  0.00    +0.045 A 
ATOM     25  C   UNL     1       7.197  -2.228   2.721  0.00  0.00    +0.121 A 
ATOM     26  C   UNL     1       6.668  -3.489   2.945  0.00  0.00    +0.055 A 
BRANCH  25  27
ATOM     27  O   UNL     1       7.682  -1.903   1.494  0.00  0.00    -0.495 OA
ATOM     28  C   UNL     1       8.217  -0.587   1.336  0.00  0.00    +0.277 C 
ENDBRANCH  25  27
ENDBRANCH   3  21
BRANCH   9  29
ATOM     29  N   UNL     1       1.445  -7.276   7.219  0.00  0.00    -0.328 N 
ATOM     30  H   UNL     1       1.374  -8.243   7.208  0.00  0.00    +0.145 HD
ATOM     31  H   UNL     1       0.859  -6.753   7.788  0.00  0.00    +0.145 HD
ENDBRANCH   9  29
BRANCH  10  32
ATOM     32  C   UNL     1       1.534  -4.606   7.351  0.00  0.00    +0.101 C 
ATOM     33  N   UNL     1       0.820  -4.057   8.044  0.00  0.00    -0.191 NA
ENDBRANCH  10  32
TORSDOF 8
