REMARK  Name = ZINC35483462
REMARK  16 active torsions:
REMARK  status: ('A' for Active; 'I' for Inactive)
REMARK    1  A    between atoms: C_1  and  C_2
REMARK    2  A    between atoms: C_2  and  C_3
REMARK    3  A    between atoms: C_3  and  C_4
REMARK    4  A    between atoms: C_4  and  N_5
REMARK    5  A    between atoms: N_5  and  C_6
REMARK    6  A    between atoms: N_5  and  C_10
REMARK    7  A    between atoms: C_6  and  C_7
REMARK    8  A    between atoms: C_7  and  C_8
REMARK    9  A    between atoms: C_8  and  C_9
REMARK   10  A    between atoms: C_10  and  C_11
REMARK   11  A    between atoms: C_11  and  C_12
REMARK   12  A    between atoms: C_12  and  N_13
REMARK   13  A    between atoms: C_14  and  C_29
REMARK   14  A    between atoms: C_32  and  O_37
REMARK   15  A    between atoms: C_33  and  O_35
REMARK   16  A    between atoms: O_35  and  C_36
REMARK                            x       y       z     vdW  Elec       q    Type
REMARK                         _______ _______ _______ _____ _____    ______ ____
ROOT
ATOM      1  N   UNL     1       3.869  -5.930  -0.299  0.00  0.00    -0.284 N 
ATOM      2  C   UNL     1       3.351  -6.241  -1.641  0.00  0.00    +0.145 C 
ATOM      3  C   UNL     1       4.552  -6.400  -2.515  0.00  0.00    +0.072 A 
ATOM      4  C   UNL     1       4.674  -6.720  -3.941  0.00  0.00    +0.199 A 
ATOM      5  O   UNL     1       3.724  -6.744  -4.703  0.00  0.00    -0.287 OA
ATOM      6  C   UNL     1       6.066  -7.012  -4.367  0.00  0.00    +0.064 A 
ATOM      7  C   UNL     1       6.323  -7.525  -5.638  0.00  0.00    +0.015 A 
ATOM      8  C   UNL     1       7.610  -7.793  -6.014  0.00  0.00    +0.001 A 
ATOM      9  C   UNL     1       8.658  -7.557  -5.135  0.00  0.00    +0.004 A 
ATOM     10  C   UNL     1       8.423  -7.049  -3.877  0.00  0.00    +0.047 A 
ATOM     11  C   UNL     1       7.119  -6.765  -3.471  0.00  0.00    +0.139 A 
ATOM     12  O   UNL     1       6.912  -6.258  -2.235  0.00  0.00    -0.450 OA
ATOM     13  C   UNL     1       5.659  -6.193  -1.742  0.00  0.00    +0.199 A 
ATOM     14  C   UNL     1       5.215  -5.899  -0.368  0.00  0.00    +0.283 C 
ATOM     15  O   UNL     1       5.955  -5.666   0.567  0.00  0.00    -0.267 OA
ENDROOT
BRANCH   2  16
ATOM     16  C   UNL     1       2.489  -5.110  -2.141  0.00  0.00    -0.019 A 
ATOM     17  C   UNL     1       2.868  -3.800  -1.910  0.00  0.00    +0.009 A 
ATOM     18  C   UNL     1       2.081  -2.759  -2.365  0.00  0.00    +0.049 A 
ATOM     19  C   UNL     1       0.910  -3.027  -3.056  0.00  0.00    +0.158 A 
ATOM     20  C   UNL     1       0.529  -4.345  -3.289  0.00  0.00    +0.162 A 
ATOM     21  C   UNL     1       1.325  -5.384  -2.833  0.00  0.00    +0.055 A 
BRANCH  20  22
ATOM     22  O   UNL     1      -0.620  -4.613  -3.966  0.00  0.00    -0.491 OA
ATOM     23  C   UNL     1      -0.948  -5.989  -4.168  0.00  0.00    +0.277 C 
ENDBRANCH  20  22
BRANCH  19  24
ATOM     24  O   UNL     1       0.134  -2.004  -3.505  0.00  0.00    -0.503 OA
ATOM     25  H   UNL     1       0.357  -1.703  -4.396  0.00  0.00    +0.292 HD
ENDBRANCH  19  24
ENDBRANCH   2  16
BRANCH   1  26
ATOM     26  C   UNL     1       3.063  -5.690   0.900  0.00  0.00    +0.107 C 
BRANCH  26  27
ATOM     27  C   UNL     1       2.734  -4.200   1.004  0.00  0.00    +0.000 C 
BRANCH  27  28
ATOM     28  C   UNL     1       1.892  -3.949   2.257  0.00  0.00    -0.077 C 
BRANCH  28  29
ATOM     29  N   UNL     1       1.577  -2.518   2.357  0.00  0.00    +0.380 N 
ATOM     30  H   UNL     1       2.432  -1.983   2.333  0.00  0.00    -0.082 HD
BRANCH  29  31
ATOM     31  C   UNL     1       0.722  -2.125   1.229  0.00  0.00    -0.079 C 
BRANCH  31  32
ATOM     32  C   UNL     1       0.510  -0.610   1.253  0.00  0.00    -0.019 C 
BRANCH  32  34
ATOM     33  C   UNL     1      -0.479   1.332   0.031  0.00  0.00    +0.004 C 
ATOM     34  C   UNL     1      -0.268  -0.184   0.007  0.00  0.00    -0.005 C 
ENDBRANCH  32  34
ENDBRANCH  31  32
ENDBRANCH  29  31
BRANCH  29  35
ATOM     35  C   UNL     1       0.872  -2.259   3.620  0.00  0.00    -0.079 C 
BRANCH  35  36
ATOM     36  C   UNL     1       1.813  -2.531   4.795  0.00  0.00    -0.019 C 
BRANCH  36  37
ATOM     37  C   UNL     1       1.125  -2.135   6.102  0.00  0.00    -0.005 C 
ATOM     38  C   UNL     1       2.066  -2.408   7.277  0.00  0.00    +0.004 C 
ENDBRANCH  36  37
ENDBRANCH  35  36
ENDBRANCH  29  35
ENDBRANCH  28  29
ENDBRANCH  27  28
ENDBRANCH  26  27
ENDBRANCH   1  26
TORSDOF 13
