REMARK  Name = ZINC64760486
REMARK  3 active torsions:
REMARK  status: ('A' for Active; 'I' for Inactive)
REMARK    1  A    between atoms: C_8  and  C_27
REMARK    2  A    between atoms: C_12  and  C_14
REMARK    3  A    between atoms: N_17  and  C_20
REMARK                            x       y       z     vdW  Elec       q    Type
REMARK                         _______ _______ _______ _____ _____    ______ ____
ROOT
ATOM      1  C   UNL     1       1.219   1.732   2.637  0.00  0.00    +0.000 A 
ATOM      2  C   UNL     1       0.433   1.772   1.501  0.00  0.00    +0.000 A 
ATOM      3  C   UNL     1       0.405   0.687   0.650  0.00  0.00    +0.005 A 
ATOM      4  C   UNL     1       1.157  -0.446   0.927  0.00  0.00    -0.027 A 
ATOM      5  C   UNL     1       1.934  -0.491   2.063  0.00  0.00    -0.040 A 
ATOM      6  C   UNL     1       1.966   0.606   2.915  0.00  0.00    +0.004 A 
ATOM      7  C   UNL     1       2.752  -1.696   2.446  0.00  0.00    +0.067 C 
ATOM      8  C   UNL     1       3.004  -2.591   1.233  0.00  0.00    +0.166 C 
ATOM      9  N   UNL     1       1.721  -2.779   0.536  0.00  0.00    -0.285 N 
ATOM     10  C   UNL     1       1.093  -1.591  -0.052  0.00  0.00    +0.144 C 
ATOM     11  C   UNL     1       1.148  -3.995   0.440  0.00  0.00    +0.228 C 
ATOM     12  O   UNL     1       1.596  -4.928   1.072  0.00  0.00    -0.275 OA
ENDROOT
BRANCH  11  13
ATOM     13  C   UNL     1      -0.051  -4.195  -0.451  0.00  0.00    +0.163 C 
ATOM     14  C   UNL     1      -0.470  -5.683  -0.468  0.00  0.00    +0.041 C 
ATOM     15  C   UNL     1      -0.919  -5.867  -1.935  0.00  0.00    +0.115 C 
ATOM     16  N   UNL     1      -0.190  -4.847  -2.698  0.00  0.00    -0.271 N 
ATOM     17  C   UNL     1       0.303  -3.893  -1.890  0.00  0.00    +0.232 C 
ATOM     18  O   UNL     1       0.940  -2.929  -2.262  0.00  0.00    -0.274 OA
BRANCH  16  19
ATOM     19  C   UNL     1      -0.029  -4.866  -4.089  0.00  0.00    +0.036 A 
ATOM     20  C   UNL     1       0.783  -3.925  -4.708  0.00  0.00    +0.026 A 
ATOM     21  C   UNL     1       0.940  -3.946  -6.080  0.00  0.00    +0.040 A 
ATOM     22  C   UNL     1       0.288  -4.903  -6.838  0.00  0.00    +0.124 A 
ATOM     23  C   UNL     1      -0.523  -5.842  -6.223  0.00  0.00    +0.040 A 
ATOM     24  C   UNL     1      -0.677  -5.829  -4.851  0.00  0.00    +0.026 A 
ATOM     25  F   UNL     1       0.442  -4.920  -8.180  0.00  0.00    -0.205 F 
ENDBRANCH  16  19
ENDBRANCH  11  13
BRANCH   8  26
ATOM     26  C   UNL     1       3.540  -3.924   1.686  0.00  0.00    +0.231 C 
ATOM     27  O   UNL     1       4.534  -4.386   1.166  0.00  0.00    -0.274 OA
ATOM     28  N   UNL     1       2.916  -4.603   2.669  0.00  0.00    -0.328 N 
ATOM     29  H   UNL     1       2.122  -4.234   3.084  0.00  0.00    +0.145 HD
ATOM     30  H   UNL     1       3.261  -5.462   2.960  0.00  0.00    +0.145 HD
ENDBRANCH   8  26
TORSDOF 3
