REMARK  Name = ZINC67189427
REMARK  5 active torsions:
REMARK  status: ('A' for Active; 'I' for Inactive)
REMARK    1  A    between atoms: C_1  and  N_2
REMARK    2  A    between atoms: C_4  and  C_28
REMARK    3  A    between atoms: N_14  and  C_17
REMARK    4  A    between atoms: N_21  and  C_25
REMARK    5  A    between atoms: C_25  and  C_26
REMARK                            x       y       z     vdW  Elec       q    Type
REMARK                         _______ _______ _______ _____ _____    ______ ____
ROOT
ATOM      1  C   UNL     1       0.068   1.457   0.149  0.00  0.00    +0.106 C 
ATOM      2  N   UNL     1       0.046  -0.010   0.073  0.00  0.00    -0.286 NA
ATOM      3  C   UNL     1      -1.347  -0.528   0.150  0.00  0.00    +0.095 C 
ATOM      4  C   UNL     1      -1.165  -1.996   0.624  0.00  0.00    +0.062 C 
ATOM      5  C   UNL     1       0.030  -1.890   1.575  0.00  0.00    +0.138 C 
ATOM      6  C   UNL     1       0.760  -0.610   1.219  0.00  0.00    +0.150 C 
ATOM      7  C   UNL     1       2.204  -0.862   0.876  0.00  0.00    +0.006 A 
ATOM      8  C   UNL     1       2.828  -1.638  -0.075  0.00  0.00    +0.027 A 
ATOM      9  C   UNL     1       4.210  -1.667  -0.147  0.00  0.00    +0.041 A 
ATOM     10  C   UNL     1       4.961  -0.913   0.737  0.00  0.00    +0.022 A 
ATOM     11  C   UNL     1       4.340  -0.134   1.691  0.00  0.00    +0.025 A 
ATOM     12  C   UNL     1       2.949  -0.101   1.771  0.00  0.00    +0.042 A 
ATOM     13  N   UNL     1       2.101   0.597   2.634  0.00  0.00    -0.272 N 
ATOM     14  C   UNL     1       0.803   0.352   2.378  0.00  0.00    +0.246 C 
ATOM     15  O   UNL     1      -0.150   0.818   2.967  0.00  0.00    -0.273 OA
ATOM     16  C   UNL     1       2.571   1.490   3.696  0.00  0.00    +0.138 C 
ATOM     17 CL   UNL     1       4.999  -2.645  -1.345  0.00  0.00    -0.084 Cl
ATOM     18  C   UNL     1      -0.367  -1.977   3.024  0.00  0.00    +0.241 C 
ATOM     19  O   UNL     1      -1.107  -1.171   3.547  0.00  0.00    -0.274 OA
ATOM     20  N   UNL     1       0.153  -3.005   3.686  0.00  0.00    -0.255 N 
ATOM     21  C   UNL     1       0.975  -3.911   3.118  0.00  0.00    +0.117 C 
ATOM     22  S   UNL     1       1.711  -5.274   3.847  0.00  0.00    -0.028 S 
ATOM     23  S   UNL     1       1.118  -3.353   1.423  0.00  0.00    -0.083 S 
ENDROOT
BRANCH   4  24
ATOM     24  C   UNL     1      -2.392  -2.481   1.352  0.00  0.00    -0.023 A 
ATOM     25  C   UNL     1      -3.169  -1.596   2.085  0.00  0.00    +0.007 A 
ATOM     26  C   UNL     1      -4.289  -2.086   2.738  0.00  0.00    +0.020 A 
ATOM     27  C   UNL     1      -4.592  -3.431   2.638  0.00  0.00    +0.111 A 
ATOM     28  N   UNL     1      -3.830  -4.244   1.932  0.00  0.00    -0.263 NA
ATOM     29  C   UNL     1      -2.761  -3.811   1.293  0.00  0.00    +0.114 A 
ENDBRANCH   4  24
BRANCH  20  30
ATOM     30  C   UNL     1      -0.184  -3.163   5.103  0.00  0.00    +0.141 C 
BRANCH  30  31
ATOM     31  C   UNL     1      -1.421  -4.013   5.233  0.00  0.00    -0.015 C 
ATOM     32  C   UNL     1      -1.399  -5.091   5.978  0.00  0.00    +0.005 C 
ENDBRANCH  30  31
ENDBRANCH  20  30
TORSDOF 3
