REMARK  Name = ZINC08901017
REMARK  10 active torsions:
REMARK  status: ('A' for Active; 'I' for Inactive)
REMARK    1  A    between atoms: C_1  and  C_2
REMARK    2  A    between atoms: C_2  and  C_3
REMARK    3  A    between atoms: C_2  and  C_4
REMARK    4  A    between atoms: C_7  and  N_10
REMARK    5  A    between atoms: C_14  and  S_15
REMARK    6  A    between atoms: S_15  and  C_16
REMARK    7  A    between atoms: C_16  and  C_17
REMARK    8  A    between atoms: C_17  and  C_19
REMARK    9  A    between atoms: C_20  and  N_31
REMARK   10  A    between atoms: N_21  and  C_28
REMARK                            x       y       z     vdW  Elec       q    Type
REMARK                         _______ _______ _______ _____ _____    ______ ____
ROOT
ATOM      1  C   UNL     1       0.848   6.175   7.436  0.00  0.00    +0.182 C 
ATOM      2  O   UNL     1       1.649   6.165   6.523  0.00  0.00    -0.291 OA
ENDROOT
BRANCH   1   3
ATOM      3  C   UNL     1       0.803   7.271   8.324  0.00  0.00    +0.120 A 
ATOM      4  C   UNL     1       1.764   8.295   8.261  0.00  0.00    +0.116 A 
ATOM      5  N   UNL     1       1.675   9.338   9.138  0.00  0.00    -0.278 N 
ATOM      6  C   UNL     1       0.701   9.395  10.059  0.00  0.00    +0.331 A 
ATOM      7  O   UNL     1       0.669  10.342  10.820  0.00  0.00    -0.246 OA
ATOM      8  N   UNL     1      -0.240   8.444  10.171  0.00  0.00    -0.274 N 
ATOM      9  H   UNL     1      -0.947   8.529  10.873  0.00  0.00    +0.173 HD
ATOM     10  C   UNL     1      -0.245   7.375   9.348  0.00  0.00    +0.266 A 
ATOM     11  O   UNL     1      -1.099   6.514   9.452  0.00  0.00    -0.267 OA
BRANCH   5  12
ATOM     12  C   UNL     1       2.668  10.414   9.076  0.00  0.00    +0.094 C 
ATOM     13  C   UNL     1       2.152  11.854   9.102  0.00  0.00    +0.027 C 
ATOM     14  C   UNL     1       2.711  11.264   7.804  0.00  0.00    +0.027 C 
ENDBRANCH   5  12
BRANCH   4  15
ATOM     15  N   UNL     1       2.762   8.251   7.337  0.00  0.00    -0.344 N 
ATOM     16  H   UNL     1       2.629   7.776   6.502  0.00  0.00    +0.144 HD
ATOM     17  H   UNL     1       3.606   8.694   7.514  0.00  0.00    +0.144 HD
ENDBRANCH   4  15
ENDBRANCH   1   3
BRANCH   1  18
ATOM     18  C   UNL     1      -0.099   5.016   7.621  0.00  0.00    +0.157 C 
BRANCH  18  19
ATOM     19  S   UNL     1       0.203   3.780   6.335  0.00  0.00    -0.079 S 
BRANCH  19  24
ATOM     20  N   UNL     1      -1.229   1.395   6.133  0.00  0.00    -0.295 N 
ATOM     21  C   UNL     1      -2.248   0.757   6.807  0.00  0.00    +0.113 A 
ATOM     22  C   UNL     1      -2.609   1.560   7.823  0.00  0.00    +0.131 A 
ATOM     23  N   UNL     1      -1.841   2.662   7.786  0.00  0.00    -0.230 NA
ATOM     24  C   UNL     1      -1.003   2.575   6.779  0.00  0.00    +0.174 A 
BRANCH  20  28
ATOM     25  C   UNL     1       0.791  -0.019   2.772  0.00  0.00    -0.045 A 
ATOM     26  C   UNL     1       0.278   1.265   2.779  0.00  0.00    +0.006 A 
ATOM     27  C   UNL     1      -0.397   1.735   3.889  0.00  0.00    +0.026 A 
ATOM     28  C   UNL     1      -0.550   0.920   5.002  0.00  0.00    +0.048 A 
ATOM     29  C   UNL     1      -0.029  -0.367   4.994  0.00  0.00    +0.026 A 
ATOM     30  C   UNL     1       0.639  -0.833   3.879  0.00  0.00    +0.006 A 
BRANCH  25  32
ATOM     31  C   UNL     1       2.734   0.360   1.279  0.00  0.00    +0.012 C 
ATOM     32  C   UNL     1       1.521  -0.530   1.557  0.00  0.00    +0.013 C 
ATOM     33  C   UNL     1       0.583  -0.504   0.349  0.00  0.00    +0.012 C 
ENDBRANCH  25  32
ENDBRANCH  20  28
ENDBRANCH  19  24
ENDBRANCH  18  19
ENDBRANCH   1  18
TORSDOF 8
