REMARK  Name = ZINC11950984
REMARK  15 active torsions:
REMARK  status: ('A' for Active; 'I' for Inactive)
REMARK    1  A    between atoms: C_1  and  C_2
REMARK    2  A    between atoms: C_2  and  O_3
REMARK    3  A    between atoms: O_3  and  C_4
REMARK    4  A    between atoms: C_6  and  C_26
REMARK    5  A    between atoms: C_9  and  O_10
REMARK    6  A    between atoms: O_10  and  C_11
REMARK    7  A    between atoms: C_11  and  C_12
REMARK    8  A    between atoms: C_12  and  O_13
REMARK    9  A    between atoms: O_13  and  C_14
REMARK   10  A    between atoms: C_16  and  C_24
REMARK   11  A    between atoms: C_19  and  C_20
REMARK   12  A    between atoms: C_20  and  C_21
REMARK   13  A    between atoms: C_20  and  C_22
REMARK   14  A    between atoms: C_20  and  C_23
REMARK   15  A    between atoms: C_26  and  N_57
REMARK                            x       y       z     vdW  Elec       q    Type
REMARK                         _______ _______ _______ _____ _____    ______ ____
ROOT
ATOM      1  C   UNL     1       6.635   5.271  -0.988  0.00  0.00    +0.164 A 
ATOM      2  C   UNL     1       7.923   5.750  -1.163  0.00  0.00    +0.051 A 
ATOM      3  C   UNL     1       8.128   6.986  -1.748  0.00  0.00    -0.060 A 
ATOM      4  C   UNL     1       7.049   7.747  -2.158  0.00  0.00    +0.025 A 
ATOM      5  C   UNL     1       5.761   7.273  -1.990  0.00  0.00    +0.086 A 
ATOM      6  C   UNL     1       5.549   6.036  -1.399  0.00  0.00    +0.180 A 
ATOM      7 CL   UNL     1       4.409   8.229  -2.512  0.00  0.00    -0.080 Cl
ENDROOT
BRANCH   1   8
ATOM      8  O   UNL     1       6.432   4.054  -0.414  0.00  0.00    -0.489 OA
BRANCH   8  10
ATOM      9  C   UNL     1       7.170   1.991   0.605  0.00  0.00    +0.048 C 
ATOM     10  C   UNL     1       7.594   3.324  -0.015  0.00  0.00    +0.226 C 
ENDBRANCH   8  10
ENDBRANCH   1   8
BRANCH   6  11
ATOM     11  O   UNL     1       4.282   5.571  -1.229  0.00  0.00    -0.483 OA
BRANCH  11  12
ATOM     12  C   UNL     1       3.630   5.898   0.000  0.00  0.00    +0.270 C 
BRANCH  12  13
ATOM     13  C   UNL     1       2.226   5.292   0.010  0.00  0.00    +0.270 C 
BRANCH  13  14
ATOM     14  O   UNL     1       2.322   3.866   0.001  0.00  0.00    -0.488 OA
BRANCH  14  15
ATOM     15  C   UNL     1       1.155   3.169   0.008  0.00  0.00    +0.125 A 
ATOM     16  C   UNL     1      -0.057   3.844   0.023  0.00  0.00    +0.049 A 
ATOM     17  C   UNL     1      -1.242   3.133   0.031  0.00  0.00    -0.047 A 
ATOM     18  C   UNL     1      -1.219   1.750   0.017  0.00  0.00    +0.004 A 
ATOM     19  C   UNL     1      -0.013   1.076   0.008  0.00  0.00    +0.008 A 
ATOM     20  C   UNL     1       1.175   1.782   0.000  0.00  0.00    -0.000 A 
ATOM     21  C   UNL     1      -2.559   3.865   0.047  0.00  0.00    +0.044 C 
BRANCH  20  22
ATOM     22  C   UNL     1       2.490   1.047  -0.017  0.00  0.00    -0.009 C 
ATOM     23  C   UNL     1       2.231  -0.461  -0.023  0.00  0.00    +0.015 C 
ATOM     24  C   UNL     1       3.275   1.434  -1.271  0.00  0.00    +0.015 C 
ATOM     25  C   UNL     1       3.299   1.420   1.227  0.00  0.00    +0.015 C 
ENDBRANCH  20  22
ENDBRANCH  14  15
ENDBRANCH  13  14
ENDBRANCH  12  13
ENDBRANCH  11  12
ENDBRANCH   6  11
BRANCH   3  26
ATOM     26  C   UNL     1       9.530   7.504  -1.938  0.00  0.00    -0.050 C 
BRANCH  26  29
ATOM     27  H   UNL     1       9.422   7.373  -3.990  0.00  0.00    -0.090 HD
ATOM     28  H   UNL     1      10.976   7.409  -3.400  0.00  0.00    -0.090 HD
ATOM     29  N   UNL     1      10.036   7.049  -3.245  0.00  0.00    +0.381 N 
ATOM     30  H   UNL     1      10.065   6.023  -3.257  0.00  0.00    -0.090 HD
ENDBRANCH  26  29
ENDBRANCH   3  26
TORSDOF 10
