REMARK  Name = ZINC20574743
REMARK  5 active torsions:
REMARK  status: ('A' for Active; 'I' for Inactive)
REMARK    1  A    between atoms: C_1  and  C_2
REMARK    2  A    between atoms: C_4  and  N_9
REMARK    3  A    between atoms: N_9  and  S_10
REMARK    4  A    between atoms: S_10  and  C_13
REMARK    5  A    between atoms: C_16  and  C_18
REMARK                            x       y       z     vdW  Elec       q    Type
REMARK                         _______ _______ _______ _____ _____    ______ ____
ROOT
ATOM      1  S   UNL     1      -0.847   1.258  -0.189  0.00  0.00    +0.079 S 
ATOM      2  O   UNL     1      -0.533  -0.126  -0.122  0.00  0.00    -0.149 OA
ATOM      3  O   UNL     1      -0.054   2.184  -0.920  0.00  0.00    -0.149 OA
ENDROOT
BRANCH   1   4
ATOM      4  C   UNL     1      -2.482   1.374  -0.835  0.00  0.00    +0.146 A 
ATOM      5  C   UNL     1      -3.087   2.427  -1.441  0.00  0.00    +0.037 A 
ATOM      6  C   UNL     1      -4.387   2.294  -1.877  0.00  0.00    +0.020 A 
ATOM      7  C   UNL     1      -5.031   1.102  -1.674  0.00  0.00    +0.041 A 
ATOM      8  S   UNL     1      -3.771   0.139  -0.854  0.00  0.00    -0.067 S 
BRANCH   7   9
ATOM      9  C   UNL     1      -6.410   0.715  -2.038  0.00  0.00    +0.098 A 
ATOM     10  C   UNL     1      -6.882  -0.585  -1.732  0.00  0.00    +0.036 A 
ATOM     11  C   UNL     1      -8.159  -0.907  -2.083  0.00  0.00    +0.073 A 
ATOM     12  C   UNL     1      -8.935   0.079  -2.732  0.00  0.00    +0.265 A 
ATOM     13  O   UNL     1     -10.084  -0.164  -3.065  0.00  0.00    -0.266 OA
ATOM     14  N   UNL     1      -8.399   1.289  -2.982  0.00  0.00    -0.243 N 
ATOM     15  H   UNL     1      -8.995   2.060  -3.491  0.00  0.00    +0.192 HD
ATOM     16  N   UNL     1      -7.195   1.579  -2.640  0.00  0.00    -0.170 NA
ENDBRANCH   7   9
ENDBRANCH   1   4
BRANCH   1  17
ATOM     17  N   UNL     1      -0.897   1.808   1.373  0.00  0.00    -0.216 N 
ATOM     18  H   UNL     1      -0.668   1.124   2.204  0.00  0.00    +0.174 HD
BRANCH  17  22
ATOM     19  C   UNL     1      -4.176   5.120   2.931  0.00  0.00    +0.045 C 
ATOM     20  C   UNL     1      -2.812   4.774   2.391  0.00  0.00    -0.035 A 
ATOM     21  C   UNL     1      -2.486   3.457   2.133  0.00  0.00    +0.029 A 
ATOM     22  C   UNL     1      -1.230   3.139   1.634  0.00  0.00    +0.048 A 
ATOM     23  C   UNL     1      -0.302   4.147   1.401  0.00  0.00    +0.025 A 
ATOM     24  C   UNL     1      -0.636   5.463   1.656  0.00  0.00    +0.017 A 
ATOM     25  C   UNL     1      -1.889   5.776   2.153  0.00  0.00    +0.021 A 
ATOM     26 BR   UNL     1      -2.339   7.579   2.507  0.00  0.00    -0.050 Br
ENDBRANCH  17  22
ENDBRANCH   1  17
TORSDOF 4
