REMARK  Name = ZINC45631875
REMARK  10 active torsions:
REMARK  status: ('A' for Active; 'I' for Inactive)
REMARK    1  A    between atoms: C_1  and  C_2
REMARK    2  A    between atoms: C_2  and  O_3
REMARK    3  A    between atoms: O_3  and  C_4
REMARK    4  A    between atoms: C_4  and  C_6
REMARK    5  A    between atoms: C_7  and  C_20
REMARK    6  A    between atoms: C_12  and  C_14
REMARK    7  A    between atoms: C_20  and  N_21
REMARK    8  A    between atoms: C_24  and  C_28
REMARK    9  A    between atoms: C_24  and  C_29
REMARK   10  A    between atoms: C_32  and  N_35
REMARK                            x       y       z     vdW  Elec       q    Type
REMARK                         _______ _______ _______ _____ _____    ______ ____
ROOT
ATOM      1  C   UNL     1      -2.795  -2.408   0.110  0.00  0.00    +0.080 C 
ATOM      2  C   UNL     1      -2.985  -3.731  -0.085  0.00  0.00    +0.042 C 
ATOM      3  N   UNL     1      -4.241  -4.258  -0.170  0.00  0.00    -0.271 N 
ATOM      4  C   UNL     1      -5.360  -3.529  -0.072  0.00  0.00    +0.304 C 
ATOM      5  O   UNL     1      -6.436  -4.088  -0.161  0.00  0.00    -0.252 OA
ATOM      6  N   UNL     1      -5.333  -2.196   0.123  0.00  0.00    -0.288 N 
ATOM      7  C   UNL     1      -4.024  -1.530   0.236  0.00  0.00    +0.144 C 
ATOM      8  H   UNL     1      -4.329  -5.214  -0.310  0.00  0.00    +0.156 HD
ATOM      9  H   UNL     1      -6.156  -1.687   0.192  0.00  0.00    +0.151 HD
ENDROOT
BRANCH   7  10
ATOM     10  C   UNL     1      -3.952  -0.473  -0.836  0.00  0.00    -0.022 A 
ATOM     11  C   UNL     1      -4.326  -0.776  -2.132  0.00  0.00    +0.006 A 
ATOM     12  C   UNL     1      -4.260   0.193  -3.115  0.00  0.00    +0.000 A 
ATOM     13  C   UNL     1      -3.820   1.466  -2.802  0.00  0.00    +0.000 A 
ATOM     14  C   UNL     1      -3.447   1.769  -1.506  0.00  0.00    +0.000 A 
ATOM     15  C   UNL     1      -3.517   0.800  -0.522  0.00  0.00    +0.006 A 
ENDBRANCH   7  10
BRANCH   1  16
ATOM     16  C   UNL     1      -1.494  -1.861   0.199  0.00  0.00    +0.339 C 
ATOM     17  O   UNL     1      -1.028  -1.574   1.286  0.00  0.00    -0.245 OA
BRANCH  16  18
ATOM     18  O   UNL     1      -0.769  -1.657  -0.921  0.00  0.00    -0.462 OA
BRANCH  18  20
ATOM     19  C   UNL     1       1.201  -0.945  -2.126  0.00  0.00    +0.048 C 
ATOM     20  C   UNL     1       0.537  -1.101  -0.756  0.00  0.00    +0.229 C 
ENDBRANCH  18  20
ENDBRANCH  16  18
ENDBRANCH   1  16
BRANCH   2  21
ATOM     21  C   UNL     1      -1.789  -4.640  -0.210  0.00  0.00    +0.169 C 
BRANCH  21  22
ATOM     22  N   UNL     1      -1.771  -5.580   0.914  0.00  0.00    -0.218 N 
ATOM     23  C   UNL     1      -1.155  -5.342   2.089  0.00  0.00    +0.251 C 
ATOM     24  O   UNL     1      -0.535  -4.348   2.404  0.00  0.00    -0.272 OA
ATOM     25  C   UNL     1      -1.399  -6.575   2.936  0.00  0.00    +0.135 C 
ATOM     26  N   UNL     1      -2.198  -7.446   2.058  0.00  0.00    -0.281 N 
ATOM     27  C   UNL     1      -2.367  -6.777   0.903  0.00  0.00    +0.310 C 
ATOM     28  O   UNL     1      -2.990  -7.213  -0.045  0.00  0.00    -0.252 OA
ATOM     29  C   UNL     1      -0.074  -7.249   3.300  0.00  0.00    +0.047 C 
ATOM     30  H   UNL     1      -2.539  -8.329   2.271  0.00  0.00    +0.152 HD
BRANCH  25  31
ATOM     31  C   UNL     1      -2.174  -6.220   4.179  0.00  0.00    -0.015 A 
ATOM     32  C   UNL     1      -2.042  -4.964   4.740  0.00  0.00    +0.008 A 
ATOM     33  C   UNL     1      -2.753  -4.638   5.880  0.00  0.00    +0.033 A 
ATOM     34  C   UNL     1      -3.596  -5.569   6.458  0.00  0.00    +0.126 A 
ATOM     35  C   UNL     1      -3.728  -6.825   5.897  0.00  0.00    +0.033 A 
ATOM     36  C   UNL     1      -3.020  -7.149   4.755  0.00  0.00    +0.008 A 
BRANCH  34  37
ATOM     37  N   UNL     1      -4.356  -5.220   7.680  0.00  0.00    +0.056 N 
ATOM     38  O   UNL     1      -4.241  -4.122   8.171  0.00  0.00    -0.126 OA
ATOM     39  O   UNL     1      -5.093  -6.035   8.186  0.00  0.00    -0.126 OA
ENDBRANCH  34  37
ENDBRANCH  25  31
ENDBRANCH  21  22
ENDBRANCH   2  21
TORSDOF 8
