REMARK  Name = ZINC12441995
REMARK  5 active torsions:
REMARK  status: ('A' for Active; 'I' for Inactive)
REMARK    1  A    between atoms: C_1  and  C_2
REMARK    2  A    between atoms: C_2  and  C_26
REMARK    3  A    between atoms: C_4  and  N_9
REMARK    4  A    between atoms: N_19  and  C_20
REMARK    5  A    between atoms: C_20  and  C_21
REMARK                            x       y       z     vdW  Elec       q    Type
REMARK                         _______ _______ _______ _____ _____    ______ ____
ROOT
ATOM      1  N   UNL     1       0.002  -0.004   0.002  0.00  0.00    -0.323 N 
ATOM      2  C   UNL     1      -0.017   1.377   0.010  0.00  0.00    +0.162 A 
ATOM      3  C   UNL     1       1.250   2.121   0.002  0.00  0.00    +0.162 A 
ATOM      4  N   UNL     1       1.255   3.437   0.009  0.00  0.00    -0.204 NA
ATOM      5  C   UNL     1       0.093   4.103   0.024  0.00  0.00    +0.244 A 
ATOM      6  C   UNL     1      -1.185   3.352   0.031  0.00  0.00    +0.244 A 
ATOM      7  N   UNL     1      -1.169   2.012   0.019  0.00  0.00    -0.204 NA
ATOM      8  N   UNL     1      -2.083   4.308   0.045  0.00  0.00    -0.027 NA
ATOM      9  O   UNL     1      -1.519   5.382   0.046  0.00  0.00    -0.238 OA
ATOM     10  N   UNL     1      -0.305   5.352   0.035  0.00  0.00    -0.027 NA
ATOM     11  N   UNL     1       2.446   1.432  -0.014  0.00  0.00    -0.322 N 
ATOM     12  H   UNL     1       0.849  -0.478  -0.009  0.00  0.00    +0.148 HD
ATOM     13  H   UNL     1       2.448   0.462  -0.019  0.00  0.00    +0.148 HD
ENDROOT
BRANCH   1  17
ATOM     14  C   UNL     1      -3.422  -2.238  -1.339  0.00  0.00    +0.041 C 
ATOM     15  C   UNL     1      -2.333  -2.941  -0.525  0.00  0.00    +0.066 C 
ATOM     16  C   UNL     1      -1.033  -2.137  -0.610  0.00  0.00    +0.056 C 
ATOM     17  C   UNL     1      -1.256  -0.754   0.010  0.00  0.00    +0.077 C 
ATOM     18  C   UNL     1      -1.742  -0.925   1.453  0.00  0.00    +0.050 C 
ATOM     19  C   UNL     1      -3.014  -1.776   1.457  0.00  0.00    +0.162 C 
ATOM     20  O   UNL     1      -2.745  -3.037   0.840  0.00  0.00    -0.374 OA
ATOM     21  C   UNL     1      -2.102  -4.345  -1.088  0.00  0.00    +0.041 C 
ENDBRANCH   1  17
BRANCH  11  22
ATOM     22  C   UNL     1       3.714   2.167  -0.022  0.00  0.00    +0.145 C 
BRANCH  22  23
ATOM     23  C   UNL     1       4.861   1.190  -0.038  0.00  0.00    +0.007 A 
ATOM     24  C   UNL     1       5.501   0.642  -1.100  0.00  0.00    +0.013 A 
ATOM     25  C   UNL     1       6.539  -0.241  -0.874  0.00  0.00    +0.008 A 
ATOM     26  C   UNL     1       6.888  -0.534   0.403  0.00  0.00    +0.045 A 
ATOM     27  S   UNL     1       5.735   0.459   1.337  0.00  0.00    -0.100 S 
ENDBRANCH  22  23
ENDBRANCH  11  22
TORSDOF 3
