REMARK  Name = ZINC43078723
REMARK  8 active torsions:
REMARK  status: ('A' for Active; 'I' for Inactive)
REMARK    1  A    between atoms: C_1  and  N_2
REMARK    2  A    between atoms: N_2  and  C_3
REMARK    3  A    between atoms: N_2  and  C_4
REMARK    4  A    between atoms: C_7  and  C_10
REMARK    5  A    between atoms: C_10  and  C_12
REMARK    6  A    between atoms: C_10  and  C_23
REMARK    7  A    between atoms: C_12  and  N_13
REMARK    8  A    between atoms: N_16  and  C_17
REMARK                            x       y       z     vdW  Elec       q    Type
REMARK                         _______ _______ _______ _____ _____    ______ ____
ROOT
ATOM      1  C   UNL     1      -0.006  -2.813  -4.924  0.00  0.00    +0.068 C 
ENDROOT
BRANCH   1   2
ATOM      2  C   UNL     1      -1.246  -2.457  -5.704  0.00  0.00    -0.013 A 
ATOM      3  C   UNL     1      -1.598  -1.232  -6.128  0.00  0.00    +0.088 A 
ATOM      4  N   UNL     1      -2.787  -1.297  -6.803  0.00  0.00    -0.360 N 
ATOM      5  H   UNL     1      -3.243  -0.539  -7.202  0.00  0.00    +0.165 HD
ATOM      6  C   UNL     1      -3.240  -2.596  -6.830  0.00  0.00    +0.047 A 
ATOM      7  C   UNL     1      -2.291  -3.381  -6.149  0.00  0.00    +0.003 A 
ATOM      8  C   UNL     1      -2.487  -4.758  -6.022  0.00  0.00    +0.010 A 
ATOM      9  C   UNL     1      -3.599  -5.337  -6.566  0.00  0.00    +0.001 A 
ATOM     10  C   UNL     1      -4.536  -4.568  -7.242  0.00  0.00    +0.002 A 
ATOM     11  C   UNL     1      -4.367  -3.207  -7.370  0.00  0.00    +0.026 A 
ENDBRANCH   1   2
BRANCH   1  15
ATOM     12  C   UNL     1       0.000  -0.696  -1.211  0.00  0.00    +0.029 A 
ATOM     13  C   UNL     1       0.013  -2.085  -1.221  0.00  0.00    +0.023 A 
ATOM     14  C   UNL     1       0.010  -2.766  -2.422  0.00  0.00    +0.006 A 
ATOM     15  C   UNL     1      -0.005  -2.066  -3.615  0.00  0.00    -0.038 A 
ATOM     16  C   UNL     1      -0.018  -0.684  -3.609  0.00  0.00    +0.006 A 
ATOM     17  C   UNL     1      -0.021   0.004  -2.411  0.00  0.00    +0.023 A 
BRANCH  12  19
ATOM     18  C   UNL     1      -0.018   1.461   0.010  0.00  0.00    +0.129 C 
ATOM     19  N   UNL     1       0.002  -0.004   0.002  0.00  0.00    -0.336 N 
ATOM     20  C   UNL     1       0.024  -0.743   1.267  0.00  0.00    +0.129 C 
ENDBRANCH  12  19
ENDBRANCH   1  15
BRANCH   1  21
ATOM     21  C   UNL     1       1.234  -2.427  -5.733  0.00  0.00    +0.118 C 
BRANCH  21  22
ATOM     22  N   UNL     1       1.295  -3.239  -6.951  0.00  0.00    -0.298 N 
ATOM     23  C   UNL     1       2.309  -3.071  -7.822  0.00  0.00    +0.304 C 
ATOM     24  O   UNL     1       3.173  -2.246  -7.598  0.00  0.00    -0.253 OA
ATOM     25  N   UNL     1       2.365  -3.819  -8.943  0.00  0.00    -0.267 N 
ATOM     26  H   UNL     1       0.605  -3.897  -7.130  0.00  0.00    +0.150 HD
ATOM     27  H   UNL     1       1.676  -4.477  -9.121  0.00  0.00    +0.156 HD
BRANCH  25  28
ATOM     28  C   UNL     1       3.425  -3.644  -9.853  0.00  0.00    +0.072 A 
ATOM     29  C   UNL     1       3.600  -4.322 -11.016  0.00  0.00    +0.128 A 
ATOM     30  N   UNL     1       4.737  -3.855 -11.596  0.00  0.00    -0.283 N 
ATOM     31  H   UNL     1       5.113  -4.155 -12.438  0.00  0.00    +0.188 HD
ATOM     32  N   UNL     1       5.270  -2.864 -10.761  0.00  0.00    -0.180 NA
ATOM     33  C   UNL     1       4.484  -2.734  -9.723  0.00  0.00    +0.157 A 
ENDBRANCH  25  28
ENDBRANCH  21  22
ENDBRANCH   1  21
TORSDOF 6
