REMARK  Name = ZINC45618327
REMARK  9 active torsions:
REMARK  status: ('A' for Active; 'I' for Inactive)
REMARK    1  A    between atoms: C_1  and  C_2
REMARK    2  A    between atoms: C_2  and  C_4
REMARK    3  A    between atoms: C_2  and  S_20
REMARK    4  A    between atoms: C_10  and  C_15
REMARK    5  A    between atoms: S_20  and  C_21
REMARK    6  A    between atoms: C_21  and  C_23
REMARK    7  A    between atoms: C_21  and  C_24
REMARK    8  A    between atoms: N_26  and  C_27
REMARK    9  A    between atoms: C_32  and  C_33
REMARK                            x       y       z     vdW  Elec       q    Type
REMARK                         _______ _______ _______ _____ _____    ______ ____
ROOT
ATOM      1  C   UNL     1      -0.052   1.513   0.024  0.00  0.00    +0.027 C 
ATOM      2  C   UNL     1      -0.041  -0.017   0.003  0.00  0.00    +0.110 C 
ENDROOT
BRANCH   2   3
ATOM      3  C   UNL     1       0.754  -0.530   1.175  0.00  0.00    +0.124 A 
ATOM      4  N   UNL     1       0.421  -0.137   2.432  0.00  0.00    -0.309 N 
ATOM      5  H   UNL     1      -0.326   0.470   2.557  0.00  0.00    +0.170 HD
ATOM      6  C   UNL     1       1.105  -0.572   3.505  0.00  0.00    +0.260 A 
ATOM      7  O   UNL     1       0.793  -0.210   4.627  0.00  0.00    -0.267 OA
ATOM      8  C   UNL     1       2.205  -1.466   3.311  0.00  0.00    +0.083 A 
ATOM      9  C   UNL     1       3.090  -2.070   4.302  0.00  0.00    +0.039 A 
ATOM     10  C   UNL     1       4.076  -2.898   3.875  0.00  0.00    +0.059 A 
ATOM     11  S   UNL     1       3.867  -2.911   2.105  0.00  0.00    -0.076 S 
ATOM     12  C   UNL     1       2.476  -1.817   1.979  0.00  0.00    +0.116 A 
ATOM     13  N   UNL     1       1.749  -1.349   0.967  0.00  0.00    -0.225 NA
BRANCH   9  14
ATOM     14  C   UNL     1       2.916  -1.785   5.740  0.00  0.00    +0.136 A 
ATOM     15  C   UNL     1       2.852  -2.710   6.736  0.00  0.00    +0.050 A 
ATOM     16  C   UNL     1       2.682  -1.999   7.941  0.00  0.00    +0.042 A 
ATOM     17  C   UNL     1       2.651  -0.690   7.626  0.00  0.00    +0.196 A 
ATOM     18  O   UNL     1       2.799  -0.564   6.296  0.00  0.00    -0.463 OA
ENDBRANCH   9  14
ENDBRANCH   2   3
BRANCH   2  19
ATOM     19  S   UNL     1       0.716  -0.596  -1.541  0.00  0.00    -0.137 S 
BRANCH  19  20
ATOM     20  C   UNL     1       0.384  -2.379  -1.550  0.00  0.00    +0.130 C 
ATOM     21  C   UNL     1      -1.111  -2.619  -1.767  0.00  0.00    +0.029 C 
BRANCH  20  22
ATOM     22  C   UNL     1       1.164  -3.029  -2.664  0.00  0.00    +0.230 C 
ATOM     23  O   UNL     1       1.573  -2.359  -3.589  0.00  0.00    -0.274 OA
ATOM     24  N   UNL     1       1.406  -4.354  -2.633  0.00  0.00    -0.284 N 
ATOM     25  H   UNL     1       1.031  -4.899  -1.924  0.00  0.00    +0.155 HD
BRANCH  24  26
ATOM     26  C   UNL     1       2.200  -4.944  -3.624  0.00  0.00    +0.045 A 
ATOM     27  C   UNL     1       2.302  -4.353  -4.877  0.00  0.00    +0.024 A 
ATOM     28  C   UNL     1       3.085  -4.937  -5.852  0.00  0.00    +0.002 A 
ATOM     29  C   UNL     1       3.768  -6.109  -5.583  0.00  0.00    +0.001 A 
ATOM     30  C   UNL     1       3.668  -6.700  -4.337  0.00  0.00    +0.014 A 
ATOM     31  C   UNL     1       2.891  -6.117  -3.354  0.00  0.00    +0.076 A 
BRANCH  31  32
ATOM     32  C   UNL     1       2.789  -6.758  -1.994  0.00  0.00    +0.419 C 
ATOM     33  F   UNL     1       3.567  -7.920  -1.966  0.00  0.00    -0.166 F 
ATOM     34  F   UNL     1       3.249  -5.864  -1.022  0.00  0.00    -0.166 F 
ATOM     35  F   UNL     1       1.454  -7.085  -1.732  0.00  0.00    -0.166 F 
ENDBRANCH  31  32
ENDBRANCH  24  26
ENDBRANCH  20  22
ENDBRANCH  19  20
ENDBRANCH   2  19
TORSDOF 7
