REMARK  Name = ZINC35454734
REMARK  4 active torsions:
REMARK  status: ('A' for Active; 'I' for Inactive)
REMARK    1  A    between atoms: C_4  and  C_7
REMARK    2  A    between atoms: C_11  and  N_13
REMARK    3  A    between atoms: N_24  and  C_25
REMARK    4  A    between atoms: C_28  and  C_31
REMARK                            x       y       z     vdW  Elec       q    Type
REMARK                         _______ _______ _______ _____ _____    ______ ____
ROOT
ATOM      1  C   UNL     1       4.062  -0.402   0.541  0.00  0.00    +0.162 A 
ATOM      2  N   UNL     1       5.294   0.051   0.711  0.00  0.00    -0.232 NA
ATOM      3  C   UNL     1       6.350  -0.738   0.533  0.00  0.00    +0.053 A 
ATOM      4  C   UNL     1       6.146  -2.049   0.172  0.00  0.00    +0.031 A 
ATOM      5  C   UNL     1       4.832  -2.500  -0.008  0.00  0.00    +0.130 A 
ATOM      6  N   UNL     1       3.825  -1.658   0.190  0.00  0.00    -0.212 NA
ATOM      7  C   UNL     1       7.277  -3.022  -0.025  0.00  0.00    +0.149 C 
ATOM      8  N   UNL     1       8.552  -2.294  -0.050  0.00  0.00    -0.281 N 
ATOM      9  C   UNL     1       8.754  -1.248   0.967  0.00  0.00    +0.116 C 
ATOM     10  C   UNL     1       7.720  -0.149   0.728  0.00  0.00    +0.075 C 
ATOM     11  C   UNL     1       9.499  -2.571  -0.967  0.00  0.00    +0.307 C 
ATOM     12  O   UNL     1      10.578  -2.014  -0.914  0.00  0.00    -0.252 OA
ATOM     13  N   UNL     1       9.251  -3.467  -1.942  0.00  0.00    -0.269 N 
ATOM     14  H   UNL     1       8.351  -3.805  -2.073  0.00  0.00    +0.156 HD
ENDROOT
BRANCH   1  18
ATOM     15  C   UNL     1       0.781   2.232   1.157  0.00  0.00    +0.000 A 
ATOM     16  C   UNL     1       2.075   2.692   1.325  0.00  0.00    +0.001 A 
ATOM     17  C   UNL     1       3.143   1.841   1.127  0.00  0.00    +0.011 A 
ATOM     18  C   UNL     1       2.917   0.517   0.756  0.00  0.00    +0.019 A 
ATOM     19  C   UNL     1       1.612   0.059   0.588  0.00  0.00    +0.011 A 
ATOM     20  C   UNL     1       0.550   0.918   0.789  0.00  0.00    +0.001 A 
ENDBRANCH   1  18
BRANCH  13  21
ATOM     21  C   UNL     1      10.288  -3.910  -2.764  0.00  0.00    +0.035 A 
ATOM     22  C   UNL     1      11.409  -3.109  -2.959  0.00  0.00    +0.024 A 
ATOM     23  C   UNL     1      12.434  -3.542  -3.769  0.00  0.00    +0.020 A 
ATOM     24  C   UNL     1      12.348  -4.789  -4.397  0.00  0.00    +0.052 A 
ATOM     25  C   UNL     1      11.220  -5.590  -4.199  0.00  0.00    +0.020 A 
ATOM     26  C   UNL     1      10.201  -5.153  -3.383  0.00  0.00    +0.024 A 
BRANCH  24  27
ATOM     27  C   UNL     1      13.412  -5.242  -5.240  0.00  0.00    +0.099 C 
ATOM     28  N   UNL     1      14.256  -5.602  -5.910  0.00  0.00    -0.191 NA
ENDBRANCH  24  27
ENDBRANCH  13  21
BRANCH   5  29
ATOM     29  N   UNL     1       4.587  -3.811  -0.383  0.00  0.00    -0.315 N 
ATOM     30  C   UNL     1       4.466  -4.955   0.532  0.00  0.00    +0.106 C 
ATOM     31  C   UNL     1       4.220  -6.210  -0.333  0.00  0.00    +0.020 C 
ATOM     32  C   UNL     1       4.779  -5.791  -1.719  0.00  0.00    +0.020 C 
ATOM     33  C   UNL     1       4.397  -4.288  -1.765  0.00  0.00    +0.106 C 
ENDBRANCH   5  29
TORSDOF 4
