REMARK  Name = ZINC21199600
REMARK  13 active torsions:
REMARK  status: ('A' for Active; 'I' for Inactive)
REMARK    1  A    between atoms: C_1  and  C_2
REMARK    2  A    between atoms: C_4  and  C_33
REMARK    3  A    between atoms: C_6  and  N_8
REMARK    4  A    between atoms: C_12  and  C_13
REMARK    5  A    between atoms: C_16  and  O_19
REMARK    6  A    between atoms: O_19  and  C_20
REMARK    7  A    between atoms: C_22  and  S_23
REMARK    8  A    between atoms: S_23  and  C_24
REMARK    9  A    between atoms: C_24  and  C_26
REMARK   10  A    between atoms: C_24  and  C_27
REMARK   11  A    between atoms: N_29  and  C_30
REMARK   12  A    between atoms: C_30  and  C_31
REMARK   13  A    between atoms: C_30  and  C_32
REMARK                            x       y       z     vdW  Elec       q    Type
REMARK                         _______ _______ _______ _____ _____    ______ ____
ROOT
ATOM      1  N   UNL     1      -2.431   1.038   0.072  0.00  0.00    -0.214 N 
ATOM      2  C   UNL     1      -2.554  -0.301  -0.061  0.00  0.00    +0.275 C 
ATOM      3  O   UNL     1      -1.658  -1.114  -0.198  0.00  0.00    -0.268 OA
ATOM      4  C   UNL     1      -4.003  -0.570  -0.007  0.00  0.00    +0.129 C 
ATOM      5  C   UNL     1      -4.618  -1.787  -0.100  0.00  0.00    +0.041 C 
ATOM      6  N   UNL     1      -4.605   0.646   0.155  0.00  0.00    -0.220 NA
ATOM      7  C   UNL     1      -3.688   1.577   0.207  0.00  0.00    +0.169 C 
ENDROOT
BRANCH   1  13
ATOM      8  C   UNL     1       1.867   2.073   2.227  0.00  0.00    +0.044 C 
ATOM      9  C   UNL     1       0.874   2.275   1.111  0.00  0.00    -0.048 A 
ATOM     10  C   UNL     1       1.149   3.172   0.096  0.00  0.00    +0.006 A 
ATOM     11  C   UNL     1       0.240   3.361  -0.929  0.00  0.00    -0.048 A 
ATOM     12  C   UNL     1      -0.945   2.652  -0.942  0.00  0.00    +0.027 A 
ATOM     13  C   UNL     1      -1.226   1.754   0.079  0.00  0.00    +0.044 A 
ATOM     14  C   UNL     1      -0.309   1.563   1.104  0.00  0.00    +0.027 A 
ATOM     15  C   UNL     1       0.544   4.340  -2.034  0.00  0.00    +0.044 C 
ENDBRANCH   1  13
BRANCH   5  16
ATOM     16  C   UNL     1      -6.081  -1.867  -0.146  0.00  0.00    -0.023 A 
ATOM     17  C   UNL     1      -6.848  -0.696  -0.221  0.00  0.00    +0.011 A 
ATOM     18  C   UNL     1      -8.221  -0.778  -0.269  0.00  0.00    +0.046 A 
ATOM     19  C   UNL     1      -8.848  -2.019  -0.233  0.00  0.00    +0.120 A 
ATOM     20  C   UNL     1      -8.093  -3.183  -0.152  0.00  0.00    +0.046 A 
ATOM     21  C   UNL     1      -6.719  -3.115  -0.109  0.00  0.00    +0.011 A 
BRANCH  19  22
ATOM     22  O   UNL     1     -10.203  -2.093  -0.275  0.00  0.00    -0.495 OA
ATOM     23  C   UNL     1     -10.918  -0.859  -0.357  0.00  0.00    +0.277 C 
ENDBRANCH  19  22
ENDBRANCH   5  16
BRANCH   7  24
ATOM     24  S   UNL     1      -4.020   3.294   0.416  0.00  0.00    -0.077 S 
BRANCH  24  25
ATOM     25  C   UNL     1      -5.827   3.255   0.519  0.00  0.00    +0.137 C 
ATOM     26  C   UNL     1      -6.404   2.781  -0.816  0.00  0.00    +0.029 C 
BRANCH  25  27
ATOM     27  C   UNL     1      -6.343   4.637   0.827  0.00  0.00    +0.226 C 
ATOM     28  O   UNL     1      -5.684   5.611   0.527  0.00  0.00    -0.275 OA
ATOM     29  N   UNL     1      -7.535   4.791   1.435  0.00  0.00    -0.312 N 
ATOM     30  H   UNL     1      -8.133   3.908   1.707  0.00  0.00    +0.149 HD
BRANCH  29  31
ATOM     31  C   UNL     1      -8.037   6.135   1.734  0.00  0.00    +0.067 C 
ATOM     32  C   UNL     1      -8.756   6.696   0.506  0.00  0.00    +0.027 C 
ATOM     33  C   UNL     1      -9.014   6.064   2.909  0.00  0.00    +0.027 C 
ENDBRANCH  29  31
ENDBRANCH  25  27
ENDBRANCH  24  25
ENDBRANCH   7  24
TORSDOF 7
