REMARK  Name = ZINC35729781
REMARK  12 active torsions:
REMARK  status: ('A' for Active; 'I' for Inactive)
REMARK    1  A    between atoms: C_1  and  C_2
REMARK    2  A    between atoms: C_2  and  N_3
REMARK    3  A    between atoms: C_4  and  C_34
REMARK    4  A    between atoms: C_5  and  C_28
REMARK    5  A    between atoms: C_6  and  C_11
REMARK    6  A    between atoms: C_15  and  N_17
REMARK    7  A    between atoms: N_17  and  S_18
REMARK    8  A    between atoms: S_18  and  C_21
REMARK    9  A    between atoms: C_28  and  O_30
REMARK   10  A    between atoms: O_30  and  C_31
REMARK   11  A    between atoms: C_31  and  C_32
REMARK   12  A    between atoms: C_31  and  C_33
REMARK                            x       y       z     vdW  Elec       q    Type
REMARK                         _______ _______ _______ _____ _____    ______ ____
ROOT
ATOM      1  C   UNL     1      -5.243  -1.022   0.172  0.00  0.00    -0.021 A 
ATOM      2  C   UNL     1      -5.393   0.350   0.077  0.00  0.00    +0.006 A 
ATOM      3  C   UNL     1      -6.637   0.927   0.259  0.00  0.00    +0.002 A 
ATOM      4  C   UNL     1      -7.734   0.134   0.536  0.00  0.00    +0.024 A 
ATOM      5  C   UNL     1      -7.586  -1.243   0.632  0.00  0.00    +0.048 A 
ATOM      6  C   UNL     1      -6.337  -1.820   0.443  0.00  0.00    +0.030 A 
ENDROOT
BRANCH   1  10
ATOM      7  N   UNL     1      -1.458  -0.323   0.041  0.00  0.00    -0.286 N 
ATOM      8  C   UNL     1      -1.931  -0.834   1.215  0.00  0.00    +0.021 C 
ATOM      9  C   UNL     1      -3.108  -1.494   1.265  0.00  0.00    +0.078 C 
ATOM     10  C   UNL     1      -3.886  -1.646  -0.027  0.00  0.00    +0.141 C 
ATOM     11  N   UNL     1      -3.289  -1.057  -1.238  0.00  0.00    -0.315 N 
ATOM     12  C   UNL     1      -2.106  -0.423  -1.126  0.00  0.00    +0.138 C 
ATOM     13  S   UNL     1      -1.403   0.271  -2.525  0.00  0.00    -0.018 S 
ATOM     14  C   UNL     1      -1.125  -0.660   2.477  0.00  0.00    +0.061 C 
ATOM     15  H   UNL     1      -3.739  -1.122  -2.095  0.00  0.00    +0.149 HD
BRANCH   7  17
ATOM     16  C   UNL     1       0.965  -0.633  -0.067  0.00  0.00    +0.025 C 
ATOM     17  C   UNL     1      -0.173   0.381   0.061  0.00  0.00    +0.109 C 
ENDBRANCH   7  17
BRANCH   9  18
ATOM     18  C   UNL     1      -3.598  -2.025   2.480  0.00  0.00    +0.339 C 
ATOM     19  O   UNL     1      -2.957  -1.891   3.505  0.00  0.00    -0.245 OA
BRANCH  18  20
ATOM     20  O   UNL     1      -4.778  -2.680   2.503  0.00  0.00    -0.459 OA
BRANCH  20  21
ATOM     21  C   UNL     1      -5.212  -3.190   3.766  0.00  0.00    +0.171 C 
ATOM     22  C   UNL     1      -6.051  -2.130   4.483  0.00  0.00    +0.052 C 
ATOM     23  C   UNL     1      -6.057  -4.446   3.545  0.00  0.00    +0.052 C 
ENDBRANCH  20  21
ENDBRANCH  18  20
ENDBRANCH   9  18
ENDBRANCH   1  10
BRANCH   5  24
ATOM     24  N   UNL     1      -8.694  -2.048   0.912  0.00  0.00    -0.216 N 
ATOM     25  H   UNL     1      -8.623  -2.758   1.569  0.00  0.00    +0.174 HD
BRANCH  24  26
ATOM     26  S   UNL     1     -10.126  -1.789   0.122  0.00  0.00    +0.072 S 
ATOM     27  O   UNL     1     -11.036  -2.771   0.599  0.00  0.00    -0.150 OA
ATOM     28  O   UNL     1     -10.393  -0.396   0.210  0.00  0.00    -0.150 OA
BRANCH  26  29
ATOM     29  C   UNL     1      -9.852  -2.142  -1.583  0.00  0.00    +0.109 A 
ATOM     30  C   UNL     1      -9.430  -1.140  -2.436  0.00  0.00    +0.031 A 
ATOM     31  C   UNL     1      -9.215  -1.416  -3.773  0.00  0.00    +0.040 A 
ATOM     32  C   UNL     1      -9.421  -2.696  -4.258  0.00  0.00    +0.124 A 
ATOM     33  C   UNL     1      -9.844  -3.699  -3.401  0.00  0.00    +0.040 A 
ATOM     34  C   UNL     1     -10.054  -3.422  -2.064  0.00  0.00    +0.031 A 
ATOM     35  F   UNL     1      -9.211  -2.967  -5.564  0.00  0.00    -0.205 F 
ENDBRANCH  26  29
ENDBRANCH  24  26
ENDBRANCH   5  24
TORSDOF 8
