REMARK  Name = ZINC40826889
REMARK  10 active torsions:
REMARK  status: ('A' for Active; 'I' for Inactive)
REMARK    1  A    between atoms: C_1  and  C_2
REMARK    2  A    between atoms: C_2  and  C_3
REMARK    3  A    between atoms: C_6  and  N_9
REMARK    4  A    between atoms: C_10  and  C_12
REMARK    5  A    between atoms: C_13  and  C_37
REMARK    6  A    between atoms: N_21  and  N_22
REMARK    7  A    between atoms: C_23  and  C_25
REMARK    8  A    between atoms: C_25  and  C_26
REMARK    9  A    between atoms: C_31  and  C_36
REMARK   10  A    between atoms: C_33  and  C_35
REMARK                            x       y       z     vdW  Elec       q    Type
REMARK                         _______ _______ _______ _____ _____    ______ ____
ROOT
ATOM      1  C   UNL     1       2.815  -2.413   6.976  0.00  0.00    +0.193 A 
ATOM      2  C   UNL     1       2.265  -2.602   8.213  0.00  0.00    +0.009 A 
ATOM      3  C   UNL     1       3.321  -2.953   9.063  0.00  0.00    +0.042 A 
ATOM      4  C   UNL     1       4.471  -2.962   8.309  0.00  0.00    +0.115 A 
ATOM      5  O   UNL     1       4.146  -2.643   7.058  0.00  0.00    -0.454 OA
ATOM      6  C   UNL     1       5.826  -3.292   8.883  0.00  0.00    +0.075 C 
ATOM      7  C   UNL     1       5.798  -3.092  10.400  0.00  0.00    +0.014 C 
ATOM      8  C   UNL     1       4.634  -3.869  11.026  0.00  0.00    +0.058 C 
ATOM      9  C   UNL     1       3.332  -3.277  10.507  0.00  0.00    +0.070 C 
ATOM     10  N   UNL     1       2.306  -3.071  11.274  0.00  0.00    -0.184 NA
ATOM     11  C   UNL     1       0.812  -2.459   8.588  0.00  0.00    +0.048 C 
ENDROOT
BRANCH   1  13
ATOM     12  N   UNL     1       2.745  -1.883   4.597  0.00  0.00    -0.279 N 
ATOM     13  C   UNL     1       2.085  -2.033   5.762  0.00  0.00    +0.284 C 
ATOM     14  O   UNL     1       0.882  -1.852   5.808  0.00  0.00    -0.266 OA
ATOM     15  H   UNL     1       3.689  -2.102   4.543  0.00  0.00    +0.155 HD
BRANCH  12  19
ATOM     16  C   UNL     1       0.735  -0.487   1.228  0.00  0.00    -0.048 A 
ATOM     17  C   UNL     1       1.761  -1.403   1.088  0.00  0.00    +0.005 A 
ATOM     18  C   UNL     1       2.430  -1.868   2.203  0.00  0.00    +0.023 A 
ATOM     19  C   UNL     1       2.071  -1.414   3.466  0.00  0.00    +0.034 A 
ATOM     20  C   UNL     1       1.039  -0.494   3.603  0.00  0.00    +0.023 A 
ATOM     21  C   UNL     1       0.378  -0.029   2.483  0.00  0.00    +0.005 A 
BRANCH  16  23
ATOM     22  C   UNL     1       0.713   1.266  -0.526  0.00  0.00    +0.009 C 
ATOM     23  C   UNL     1       0.007   0.018   0.009  0.00  0.00    +0.032 C 
ENDBRANCH  16  23
ENDBRANCH  12  19
ENDBRANCH   1  13
BRANCH  10  24
ATOM     24  N   UNL     1       2.373  -3.397  12.634  0.00  0.00    -0.206 N 
ATOM     25  C   UNL     1       1.307  -3.183  13.431  0.00  0.00    +0.237 C 
ATOM     26  O   UNL     1       0.290  -2.709  12.970  0.00  0.00    -0.274 OA
ATOM     27  H   UNL     1       3.186  -3.777  13.003  0.00  0.00    +0.177 HD
BRANCH  25  28
ATOM     28  C   UNL     1       1.378  -3.534  14.895  0.00  0.00    +0.136 C 
BRANCH  28  29
ATOM     29  C   UNL     1       0.066  -3.200  15.556  0.00  0.00    +0.007 A 
ATOM     30  C   UNL     1      -0.244  -2.069  16.204  0.00  0.00    +0.200 A 
ATOM     31  O   UNL     1      -1.506  -2.128  16.662  0.00  0.00    -0.463 OA
ATOM     32  C   UNL     1      -2.082  -3.302  16.335  0.00  0.00    +0.136 A 
ATOM     33  C   UNL     1      -1.132  -4.046  15.615  0.00  0.00    +0.027 A 
ATOM     34  C   UNL     1      -1.452  -5.316  15.138  0.00  0.00    -0.039 A 
ATOM     35  C   UNL     1      -2.707  -5.835  15.374  0.00  0.00    +0.007 A 
ATOM     36  C   UNL     1      -3.646  -5.100  16.081  0.00  0.00    -0.047 A 
ATOM     37  C   UNL     1      -3.340  -3.846  16.565  0.00  0.00    +0.050 A 
ATOM     38  C   UNL     1      -5.014  -5.681  16.330  0.00  0.00    +0.044 C 
ATOM     39  C   UNL     1      -0.433  -6.116  14.369  0.00  0.00    +0.044 C 
ENDBRANCH  28  29
ENDBRANCH  25  28
ENDBRANCH  10  24
TORSDOF 6
