REMARK  Name = ZINC02110982
REMARK  5 active torsions:
REMARK  status: ('A' for Active; 'I' for Inactive)
REMARK    1  A    between atoms: C_1  and  C_2
REMARK    2  A    between atoms: C_7  and  C_12
REMARK    3  A    between atoms: C_13  and  C_14
REMARK    4  A    between atoms: C_15  and  C_27
REMARK    5  A    between atoms: C_15  and  C_28
REMARK                            x       y       z     vdW  Elec       q    Type
REMARK                         _______ _______ _______ _____ _____    ______ ____
ROOT
ATOM      1  C   UNL     1      -4.991   3.907   0.060  0.00  0.00    +0.131 C 
ATOM      2  C   UNL     1      -5.865   3.576  -1.171  0.00  0.00    +0.034 C 
ATOM      3  C   UNL     1      -6.766   2.470  -0.658  0.00  0.00    -0.017 A 
ATOM      4  C   UNL     1      -7.554   1.553  -1.320  0.00  0.00    +0.006 A 
ATOM      5  C   UNL     1      -8.289   0.625  -0.603  0.00  0.00    +0.000 A 
ATOM      6  C   UNL     1      -8.232   0.620   0.778  0.00  0.00    +0.002 A 
ATOM      7  C   UNL     1      -7.447   1.538   1.445  0.00  0.00    +0.023 A 
ATOM      8  C   UNL     1      -6.706   2.478   0.730  0.00  0.00    +0.036 A 
ATOM      9  N   UNL     1      -5.865   3.498   1.192  0.00  0.00    -0.296 N 
ATOM     10  C   UNL     1      -6.657   4.720   1.464  0.00  0.00    +0.203 C 
ATOM     11  C   UNL     1      -5.792   5.862   0.978  0.00  0.00    +0.232 C 
ATOM     12  O   UNL     1      -5.934   7.031   1.267  0.00  0.00    -0.274 OA
ATOM     13  N   UNL     1      -4.824   5.361   0.161  0.00  0.00    -0.289 N 
ATOM     14  C   UNL     1      -5.001   3.077  -2.330  0.00  0.00    +0.020 C 
ATOM     15  C   UNL     1      -6.686   4.796  -1.595  0.00  0.00    +0.020 C 
ATOM     16  H   UNL     1      -4.137   5.876  -0.290  0.00  0.00    +0.151 HD
ENDROOT
BRANCH   1  18
ATOM     17  C   UNL     1      -2.537   3.857   0.041  0.00  0.00    +0.007 C 
ATOM     18  C   UNL     1      -3.674   3.175   0.047  0.00  0.00    +0.020 C 
BRANCH  17  24
ATOM     19  C   UNL     1       4.693   2.288  -0.333  0.00  0.00    +0.052 C 
ATOM     20  C   UNL     1       3.357   2.371   0.407  0.00  0.00    +0.175 C 
ATOM     21  C   UNL     1       2.591   3.656   0.013  0.00  0.00    +0.083 C 
ATOM     22  C   UNL     1       1.153   3.175   0.011  0.00  0.00    -0.002 A 
ATOM     23  C   UNL     1      -0.044   3.851   0.022  0.00  0.00    +0.015 A 
ATOM     24  C   UNL     1      -1.245   3.139   0.029  0.00  0.00    -0.025 A 
ATOM     25  C   UNL     1      -1.216   1.743   0.017  0.00  0.00    +0.011 A 
ATOM     26  C   UNL     1      -0.013   1.076   0.008  0.00  0.00    +0.046 A 
ATOM     27  C   UNL     1       1.188   1.785   0.000  0.00  0.00    +0.124 A 
ATOM     28  O   UNL     1       2.470   1.326  -0.025  0.00  0.00    -0.488 OA
ENDBRANCH  17  24
ENDBRANCH   1  18
TORSDOF 2
