REMARK  Name = ZINC26464365
REMARK  7 active torsions:
REMARK  status: ('A' for Active; 'I' for Inactive)
REMARK    1  A    between atoms: C_1  and  C_2
REMARK    2  A    between atoms: C_2  and  C_3
REMARK    3  A    between atoms: C_3  and  C_4
REMARK    4  A    between atoms: C_4  and  C_5
REMARK    5  A    between atoms: C_13  and  S_17
REMARK    6  A    between atoms: S_17  and  C_18
REMARK    7  A    between atoms: C_18  and  C_19
REMARK                            x       y       z     vdW  Elec       q    Type
REMARK                         _______ _______ _______ _____ _____    ______ ____
ROOT
ATOM      1  C   UNL     1      -0.802   2.140  -8.715  0.00  0.00    +0.040 C 
ATOM      2  N   UNL     1      -1.516   2.204  -7.620  0.00  0.00    -0.273 NA
ATOM      3  C   UNL     1      -1.291   1.252  -6.542  0.00  0.00    +0.180 C 
ATOM      4  C   UNL     1       0.233   0.991  -6.434  0.00  0.00    +0.100 C 
ATOM      5  C   UNL     1       0.667   0.633  -5.093  0.00  0.00    +0.069 A 
ATOM      6  C   UNL     1      -0.148   1.174  -4.070  0.00  0.00    +0.064 A 
ATOM      7  C   UNL     1       0.122   0.990  -2.724  0.00  0.00    +0.114 A 
ATOM      8  N   UNL     1       1.207   0.252  -2.448  0.00  0.00    -0.228 NA
ATOM      9  C   UNL     1       1.942  -0.261  -3.412  0.00  0.00    +0.222 A 
ATOM     10  N   UNL     1       1.720  -0.101  -4.702  0.00  0.00    -0.238 NA
ATOM     11  S   UNL     1      -1.474   2.033  -4.881  0.00  0.00    -0.093 S 
ATOM     12  C   UNL     1       0.786   0.558  -7.718  0.00  0.00    -0.053 C 
ATOM     13  C   UNL     1       0.253   1.118  -8.836  0.00  0.00    -0.027 C 
ATOM     14  C   UNL     1       0.904   0.562 -10.064  0.00  0.00    +0.037 C 
ATOM     15  C   UNL     1       2.209  -0.101  -9.563  0.00  0.00    +0.009 C 
ATOM     16  C   UNL     1       1.862  -0.417  -8.089  0.00  0.00    +0.032 C 
ENDROOT
BRANCH   1  17
ATOM     17  C   UNL     1      -1.059   3.103  -9.845  0.00  0.00    +0.055 C 
BRANCH  17  18
ATOM     18  C   UNL     1      -2.198   4.049  -9.460  0.00  0.00    +0.006 C 
BRANCH  18  20
ATOM     19  C   UNL     1      -3.597   5.974 -10.222  0.00  0.00    +0.004 C 
ATOM     20  C   UNL     1      -2.458   5.027 -10.607  0.00  0.00    -0.003 C 
ENDBRANCH  18  20
ENDBRANCH  17  18
ENDBRANCH   1  17
BRANCH   7  21
ATOM     21  S   UNL     1      -0.888   1.685  -1.458  0.00  0.00    -0.100 S 
BRANCH  21  22
ATOM     22  C   UNL     1      -0.013   1.086   0.008  0.00  0.00    +0.112 C 
BRANCH  22  23
ATOM     23  C   UNL     1      -0.718   1.572   1.248  0.00  0.00    -0.019 A 
ATOM     24  C   UNL     1      -0.360   2.779   1.819  0.00  0.00    +0.007 A 
ATOM     25  C   UNL     1      -1.010   3.228   2.952  0.00  0.00    +0.020 A 
ATOM     26  C   UNL     1      -2.013   2.464   3.524  0.00  0.00    +0.042 A 
ATOM     27  C   UNL     1      -2.368   1.254   2.956  0.00  0.00    +0.040 A 
ATOM     28  C   UNL     1      -1.720   0.807   1.818  0.00  0.00    +0.046 A 
ATOM     29 CL   UNL     1      -2.165  -0.712   1.106  0.00  0.00    -0.083 Cl
ATOM     30 CL   UNL     1      -2.824   3.025   4.952  0.00  0.00    -0.083 Cl
ENDBRANCH  22  23
ENDBRANCH  21  22
ENDBRANCH   7  21
TORSDOF 6
