REMARK  Name = ZINC26771281
REMARK  6 active torsions:
REMARK  status: ('A' for Active; 'I' for Inactive)
REMARK    1  A    between atoms: C_5  and  C_7
REMARK    2  A    between atoms: N_9  and  N_10
REMARK    3  A    between atoms: C_11  and  C_13
REMARK    4  A    between atoms: C_14  and  C_15
REMARK    5  A    between atoms: C_18  and  C_20
REMARK    6  A    between atoms: C_24  and  N_26
REMARK                            x       y       z     vdW  Elec       q    Type
REMARK                         _______ _______ _______ _____ _____    ______ ____
ROOT
ATOM      1  C   UNL     1       2.814   8.375   0.022  0.00  0.00    +0.072 C 
ATOM      2  C   UNL     1       1.466   8.539   0.035  0.00  0.00    +0.051 C 
ENDROOT
BRANCH   2   3
ATOM      3  C   UNL     1       0.616   7.410   0.037  0.00  0.00    +0.129 A 
ATOM      4  C   UNL     1      -0.766   7.433   0.050  0.00  0.00    +0.050 A 
ATOM      5  C   UNL     1      -1.191   6.102   0.047  0.00  0.00    +0.050 A 
ATOM      6  C   UNL     1      -0.070   5.321   0.032  0.00  0.00    +0.136 A 
ATOM      7  O   UNL     1       1.012   6.119   0.032  0.00  0.00    -0.455 OA
BRANCH   6   8
ATOM      8  C   UNL     1      -0.050   3.845   0.024  0.00  0.00    +0.019 A 
ATOM      9  C   UNL     1      -1.248   3.127   0.031  0.00  0.00    +0.012 A 
ATOM     10  C   UNL     1      -1.222   1.748   0.017  0.00  0.00    +0.003 A 
ATOM     11  C   UNL     1      -0.013   1.076   0.008  0.00  0.00    +0.033 A 
ATOM     12  C   UNL     1       1.178   1.781   0.000  0.00  0.00    +0.127 A 
ATOM     13  C   UNL     1       1.167   3.160   0.008  0.00  0.00    +0.044 A 
BRANCH  12  14
ATOM     14  N   UNL     1       2.467   1.053  -0.016  0.00  0.00    +0.056 N 
ATOM     15  O   UNL     1       2.478  -0.165  -0.022  0.00  0.00    -0.126 OA
ATOM     16  O   UNL     1       3.516   1.672  -0.022  0.00  0.00    -0.126 OA
ENDBRANCH  12  14
ENDBRANCH   6   8
ENDBRANCH   2   3
BRANCH   1  18
ATOM     17  N   UNL     1       5.002   9.342   0.006  0.00  0.00    -0.231 N 
ATOM     18  C   UNL     1       3.664   9.505   0.019  0.00  0.00    +0.253 C 
ATOM     19  O   UNL     1       3.187  10.626   0.029  0.00  0.00    -0.269 OA
ATOM     20  H   UNL     1       5.432   8.330  -0.003  0.00  0.00    +0.173 HD
BRANCH  17  23
ATOM     21  C   UNL     1       7.182  10.299  -0.009  0.00  0.00    +0.261 C 
ATOM     22  O   UNL     1       7.658   9.180  -0.020  0.00  0.00    -0.269 OA
ATOM     23  N   UNL     1       5.844  10.462   0.004  0.00  0.00    -0.230 N 
ATOM     24  H   UNL     1       5.414  11.474   0.013  0.00  0.00    +0.173 HD
BRANCH  21  29
ATOM     25  C   UNL     1       8.362  13.864  -0.003  0.00  0.00    +0.001 A 
ATOM     26  C   UNL     1       9.736  13.693  -0.017  0.00  0.00    +0.001 A 
ATOM     27  C   UNL     1      10.281  12.423  -0.028  0.00  0.00    +0.016 A 
ATOM     28  C   UNL     1       9.457  11.314  -0.026  0.00  0.00    +0.030 A 
ATOM     29  C   UNL     1       8.070  11.480  -0.012  0.00  0.00    +0.052 A 
ATOM     30  C   UNL     1       7.527  12.766  -0.006  0.00  0.00    +0.014 A 
ATOM     31 BR   UNL     1      10.205   9.578  -0.042  0.00  0.00    -0.050 Br
ENDBRANCH  21  29
ENDBRANCH  17  23
ENDBRANCH   1  18
TORSDOF 6
