REMARK  Name = ZINC35366404
REMARK  6 active torsions:
REMARK  status: ('A' for Active; 'I' for Inactive)
REMARK    1  A    between atoms: C_4  and  N_21
REMARK    2  A    between atoms: C_5  and  C_7
REMARK    3  A    between atoms: C_7  and  N_8
REMARK    4  A    between atoms: N_8  and  C_9
REMARK    5  A    between atoms: N_8  and  S_12
REMARK    6  A    between atoms: S_12  and  C_15
REMARK                            x       y       z     vdW  Elec       q    Type
REMARK                         _______ _______ _______ _____ _____    ______ ____
ROOT
ATOM      1  N   UNL     1       1.413  -2.458   1.355  0.00  0.00    -0.169 NA
ENDROOT
BRANCH   1   2
ATOM      2  C   UNL     1       0.218  -2.961   2.037  0.00  0.00    +0.080 C 
ATOM      3  C   UNL     1      -1.141  -2.470   1.535  0.00  0.00    +0.022 C 
ATOM      4  C   UNL     1      -0.695  -3.907   1.256  0.00  0.00    +0.022 C 
ENDBRANCH   1   2
BRANCH   1   5
ATOM      5  S   UNL     1       2.898  -2.599   2.074  0.00  0.00    +0.068 S 
ATOM      6  O   UNL     1       2.752  -3.542   3.127  0.00  0.00    -0.152 OA
ATOM      7  O   UNL     1       3.843  -2.768   1.026  0.00  0.00    -0.152 OA
BRANCH   5   8
ATOM      8  C   UNL     1       3.260  -1.050   2.833  0.00  0.00    +0.144 A 
ATOM      9  C   UNL     1       3.057  -0.660   4.114  0.00  0.00    +0.038 A 
ATOM     10  C   UNL     1       3.422   0.619   4.492  0.00  0.00    +0.030 A 
ATOM     11  C   UNL     1       3.973   1.445   3.568  0.00  0.00    +0.080 A 
ATOM     12  S   UNL     1       3.995   0.409   2.114  0.00  0.00    -0.057 S 
ATOM     13 CL   UNL     1       4.520   3.082   3.752  0.00  0.00    -0.076 Cl
ENDBRANCH   5   8
ENDBRANCH   1   5
BRANCH   1  14
ATOM     14  C   UNL     1       1.295  -1.830   0.037  0.00  0.00    +0.146 C 
BRANCH  14  19
ATOM     15  C   UNL     1       4.166  -1.952  -2.412  0.00  0.00    +0.000 A 
ATOM     16  C   UNL     1       4.373  -3.314  -2.534  0.00  0.00    +0.002 A 
ATOM     17  C   UNL     1       3.586  -4.200  -1.825  0.00  0.00    +0.023 A 
ATOM     18  C   UNL     1       2.585  -3.721  -0.989  0.00  0.00    +0.029 A 
ATOM     19  C   UNL     1       2.380  -2.353  -0.869  0.00  0.00    -0.011 A 
ATOM     20  C   UNL     1       3.171  -1.473  -1.580  0.00  0.00    +0.007 A 
BRANCH  18  21
ATOM     21  N   UNL     1       1.786  -4.615  -0.271  0.00  0.00    -0.358 N 
ATOM     22  H   UNL     1       1.861  -5.569  -0.430  0.00  0.00    +0.142 HD
ATOM     23  H   UNL     1       1.156  -4.281   0.387  0.00  0.00    +0.142 HD
ENDBRANCH  18  21
ENDBRANCH  14  19
ENDBRANCH   1  14
TORSDOF 6
