REMARK  Name = ZINC61689359
REMARK  11 active torsions:
REMARK  status: ('A' for Active; 'I' for Inactive)
REMARK    1  A    between atoms: C_1  and  C_2
REMARK    2  A    between atoms: C_2  and  N_3
REMARK    3  A    between atoms: N_3  and  C_4
REMARK    4  A    between atoms: N_3  and  C_6
REMARK    5  A    between atoms: C_4  and  C_5
REMARK    6  A    between atoms: C_6  and  C_7
REMARK    7  A    between atoms: C_7  and  N_8
REMARK    8  A    between atoms: N_8  and  C_9
REMARK    9  A    between atoms: C_9  and  C_10
REMARK   10  A    between atoms: C_9  and  C_11
REMARK   11  A    between atoms: C_9  and  C_19
REMARK                            x       y       z     vdW  Elec       q    Type
REMARK                         _______ _______ _______ _____ _____    ______ ____
ROOT
ATOM      1  C   UNL     1       3.153  -3.799  -1.546  0.00  0.00    +0.118 C 
ATOM      2  C   UNL     1       2.377  -3.377  -2.795  0.00  0.00    +0.043 C 
ENDROOT
BRANCH   1   3
ATOM      3  C   UNL     1       3.474  -5.270  -1.628  0.00  0.00    -0.018 A 
ATOM      4  C   UNL     1       3.000  -6.135  -0.659  0.00  0.00    +0.009 A 
ATOM      5  C   UNL     1       3.293  -7.483  -0.732  0.00  0.00    +0.040 A 
ATOM      6  C   UNL     1       4.061  -7.968  -1.777  0.00  0.00    +0.137 A 
ATOM      7  C   UNL     1       4.535  -7.101  -2.748  0.00  0.00    +0.053 A 
ATOM      8  C   UNL     1       4.236  -5.753  -2.675  0.00  0.00    +0.024 A 
ATOM      9 BR   UNL     1       5.584  -7.761  -4.176  0.00  0.00    -0.047 Br
ATOM     10  F   UNL     1       4.348  -9.287  -1.850  0.00  0.00    -0.204 F 
ENDBRANCH   1   3
BRANCH   1  11
ATOM     11  C   UNL     1       4.433  -3.010  -1.460  0.00  0.00    +0.235 C 
ATOM     12  O   UNL     1       4.931  -2.550  -2.465  0.00  0.00    -0.274 OA
ATOM     13  N   UNL     1       5.025  -2.815  -0.264  0.00  0.00    -0.328 N 
ATOM     14  H   UNL     1       4.627  -3.183   0.540  0.00  0.00    +0.145 HD
ATOM     15  H   UNL     1       5.849  -2.307  -0.209  0.00  0.00    +0.145 HD
ENDBRANCH   1  11
BRANCH   1  16
ATOM     16  N   UNL     1       2.337  -3.542  -0.352  0.00  0.00    -0.302 NA
ATOM     17  H   UNL     1       2.801  -3.872   0.481  0.00  0.00    +0.123 HD
BRANCH  16  18
ATOM     18  C   UNL     1       2.004  -2.115  -0.240  0.00  0.00    +0.063 C 
BRANCH  18  19
ATOM     19  C   UNL     1       1.156  -1.887   1.013  0.00  0.00    -0.064 C 
BRANCH  19  20
ATOM     20  N   UNL     1       0.823  -0.461   1.126  0.00  0.00    +0.380 N 
ATOM     21  H   UNL     1       1.671   0.085   1.109  0.00  0.00    -0.082 HD
BRANCH  20  23
ATOM     22  C   UNL     1      -0.264   1.445   0.037  0.00  0.00    -0.017 C 
ATOM     23  C   UNL     1      -0.034  -0.067  -0.001  0.00  0.00    -0.082 C 
ENDBRANCH  20  23
BRANCH  20  24
ATOM     24  C   UNL     1       0.111  -0.222   2.389  0.00  0.00    -0.082 C 
ATOM     25  C   UNL     1       1.053  -0.495   3.563  0.00  0.00    -0.017 C 
ENDBRANCH  20  24
ENDBRANCH  19  20
ENDBRANCH  18  19
ENDBRANCH  16  18
ENDBRANCH   1  16
TORSDOF 8
