REMARK  Name = ZINC50853534
REMARK  6 active torsions:
REMARK  status: ('A' for Active; 'I' for Inactive)
REMARK    1  A    between atoms: C_1  and  C_2
REMARK    2  A    between atoms: C_2  and  C_3
REMARK    3  A    between atoms: C_2  and  C_4
REMARK    4  A    between atoms: C_2  and  C_5
REMARK    5  A    between atoms: C_11  and  C_19
REMARK    6  A    between atoms: C_25  and  C_28
REMARK                            x       y       z     vdW  Elec       q    Type
REMARK                         _______ _______ _______ _____ _____    ______ ____
ROOT
ATOM      1  C   UNL     1       0.718  -0.497  -1.257  0.00  0.00    -0.001 C 
ATOM      2  C   UNL     1       0.753  -2.030  -1.264  0.00  0.00    +0.010 C 
ATOM      3  C   UNL     1       1.243  -2.496  -2.633  0.00  0.00    +0.056 C 
ATOM      4  C   UNL     1       2.532  -1.802  -2.999  0.00  0.00    +0.046 A 
ATOM      5  C   UNL     1       2.945  -0.636  -2.369  0.00  0.00    -0.013 A 
ATOM      6  C   UNL     1       4.142  -0.033  -2.753  0.00  0.00    +0.051 A 
ATOM      7  C   UNL     1       4.902  -0.642  -3.780  0.00  0.00    +0.013 A 
ATOM      8  C   UNL     1       6.114  -0.096  -4.221  0.00  0.00    +0.011 A 
ATOM      9  C   UNL     1       6.813  -0.719  -5.211  0.00  0.00    +0.001 A 
ATOM     10  C   UNL     1       6.336  -1.892  -5.793  0.00  0.00    +0.002 A 
ATOM     11  C   UNL     1       5.161  -2.448  -5.390  0.00  0.00    +0.028 A 
ATOM     12  C   UNL     1       4.412  -1.834  -4.369  0.00  0.00    +0.072 A 
ATOM     13  N   UNL     1       3.258  -2.353  -3.953  0.00  0.00    -0.251 NA
ATOM     14  C   UNL     1       2.156   0.018  -1.266  0.00  0.00    +0.041 C 
ENDROOT
BRANCH   6  15
ATOM     15  C   UNL     1       4.605   1.213  -2.105  0.00  0.00    +0.248 C 
ATOM     16  O   UNL     1       5.313   1.158  -1.118  0.00  0.00    -0.270 OA
ATOM     17  N   UNL     1       4.242   2.410  -2.608  0.00  0.00    -0.292 N 
ATOM     18  C   UNL     1       3.381   2.502  -3.797  0.00  0.00    +0.136 C 
ATOM     19  C   UNL     1       4.042   3.455  -4.800  0.00  0.00    +0.180 C 
ATOM     20  O   UNL     1       4.353   4.686  -4.145  0.00  0.00    -0.364 OA
ATOM     21  C   UNL     1       5.292   4.559  -3.074  0.00  0.00    +0.221 C 
ATOM     22  C   UNL     1       4.691   3.663  -1.980  0.00  0.00    +0.149 C 
BRANCH  21  23
ATOM     23  C   UNL     1       5.591   5.921  -2.502  0.00  0.00    +0.241 C 
ATOM     24  O   UNL     1       4.986   6.893  -2.902  0.00  0.00    -0.273 OA
ATOM     25  N   UNL     1       6.530   6.058  -1.545  0.00  0.00    -0.327 N 
ATOM     26  H   UNL     1       7.013   5.281  -1.224  0.00  0.00    +0.145 HD
ATOM     27  H   UNL     1       6.722   6.934  -1.176  0.00  0.00    +0.145 HD
ENDBRANCH  21  23
ENDBRANCH   6  15
BRANCH   1  29
ATOM     28  C   UNL     1      -0.019   1.526   0.010  0.00  0.00    +0.011 C 
ATOM     29  C   UNL     1       0.002  -0.004   0.002  0.00  0.00    -0.035 C 
ATOM     30  C   UNL     1       0.742  -0.511   1.242  0.00  0.00    +0.011 C 
ATOM     31  C   UNL     1      -1.433  -0.534   0.013  0.00  0.00    +0.011 C 
ENDBRANCH   1  29
TORSDOF 3
