REMARK  Name = ZINC67390523
REMARK  7 active torsions:
REMARK  status: ('A' for Active; 'I' for Inactive)
REMARK    1  A    between atoms: C_1  and  C_2
REMARK    2  A    between atoms: C_5  and  C_8
REMARK    3  A    between atoms: C_13  and  N_16
REMARK    4  A    between atoms: N_19  and  C_20
REMARK    5  A    between atoms: C_20  and  C_22
REMARK    6  A    between atoms: C_20  and  C_23
REMARK    7  A    between atoms: C_23  and  C_24
REMARK                            x       y       z     vdW  Elec       q    Type
REMARK                         _______ _______ _______ _____ _____    ______ ____
ROOT
ATOM      1  C   UNL     1       0.059  -4.251  -0.021  0.00  0.00    +0.247 C 
ATOM      2  O   UNL     1       0.150  -3.039  -0.013  0.00  0.00    -0.270 OA
ATOM      3  N   UNL     1      -0.028  -4.929   1.140  0.00  0.00    -0.297 N 
ATOM      4  C   UNL     1      -0.149  -4.213   2.418  0.00  0.00    +0.110 C 
ATOM      5  C   UNL     1       0.951  -4.704   3.364  0.00  0.00    +0.041 C 
ATOM      6  C   UNL     1       0.869  -6.227   3.488  0.00  0.00    +0.077 C 
ATOM      7  C   UNL     1       1.094  -6.865   2.115  0.00  0.00    +0.041 C 
ATOM      8  C   UNL     1      -0.010  -6.398   1.153  0.00  0.00    +0.110 C 
ENDROOT
BRANCH   1  13
ATOM      9  C   UNL     1       0.000  -7.097  -5.023  0.00  0.00    +0.044 C 
ATOM     10  C   UNL     1       0.015  -6.352  -3.713  0.00  0.00    -0.050 A 
ATOM     11  C   UNL     1       0.886  -5.291  -3.534  0.00  0.00    +0.004 A 
ATOM     12  C   UNL     1       0.905  -4.604  -2.338  0.00  0.00    +0.013 A 
ATOM     13  C   UNL     1       0.044  -4.982  -1.306  0.00  0.00    +0.037 A 
ATOM     14  C   UNL     1      -0.832  -6.053  -1.493  0.00  0.00    +0.013 A 
ATOM     15  C   UNL     1      -0.845  -6.728  -2.697  0.00  0.00    +0.004 A 
ENDBRANCH   1  13
BRANCH   6  16
ATOM     16  N   UNL     1       1.899  -6.697   4.418  0.00  0.00    -0.296 N 
ATOM     17  C   UNL     1       1.732  -7.863   5.074  0.00  0.00    +0.300 C 
ATOM     18  O   UNL     1       0.728  -8.524   4.894  0.00  0.00    -0.253 OA
ATOM     19  N   UNL     1       2.679  -8.296   5.930  0.00  0.00    -0.296 N 
ATOM     20  H   UNL     1       2.700  -6.170   4.562  0.00  0.00    +0.151 HD
ATOM     21  H   UNL     1       3.480  -7.768   6.074  0.00  0.00    +0.151 HD
BRANCH  19  22
ATOM     22  C   UNL     1       2.498  -9.563   6.643  0.00  0.00    +0.076 C 
ATOM     23  C   UNL     1       1.672  -9.322   7.908  0.00  0.00    +0.028 C 
BRANCH  22  24
ATOM     24  C   UNL     1       3.866 -10.131   7.027  0.00  0.00    +0.064 C 
BRANCH  24  25
ATOM     25  C   UNL     1       4.633 -10.482   5.778  0.00  0.00    -0.008 A 
ATOM     26  C   UNL     1       5.481  -9.713   5.053  0.00  0.00    +0.011 A 
ATOM     27  C   UNL     1       6.079 -10.252   3.929  0.00  0.00    +0.008 A 
ATOM     28  C   UNL     1       5.801 -11.533   3.586  0.00  0.00    +0.045 A 
ATOM     29  S   UNL     1       4.666 -12.022   4.875  0.00  0.00    -0.102 S 
ENDBRANCH  24  25
ENDBRANCH  22  24
ENDBRANCH  19  22
ENDBRANCH   6  16
TORSDOF 5
