REMARK  Name = ZINC02398955
REMARK  7 active torsions:
REMARK  status: ('A' for Active; 'I' for Inactive)
REMARK    1  A    between atoms: C_1  and  C_2
REMARK    2  A    between atoms: C_10  and  C_18
REMARK    3  A    between atoms: C_25  and  C_28
REMARK    4  A    between atoms: C_31  and  O_36
REMARK    5  A    between atoms: C_33  and  O_34
REMARK    6  A    between atoms: O_34  and  C_35
REMARK    7  A    between atoms: O_36  and  C_37
REMARK                            x       y       z     vdW  Elec       q    Type
REMARK                         _______ _______ _______ _____ _____    ______ ____
ROOT
ATOM      1  C   UNL     1       0.346   1.587   0.182  0.00  0.00    +0.044 C 
ATOM      2  C   UNL     1       0.312   0.081   0.153  0.00  0.00    -0.050 A 
ATOM      3  C   UNL     1       0.326  -0.586  -1.059  0.00  0.00    +0.007 A 
ATOM      4  C   UNL     1       0.295  -1.968  -1.101  0.00  0.00    +0.046 A 
ATOM      5  C   UNL     1       0.250  -2.692   0.077  0.00  0.00    +0.131 A 
ATOM      6  C   UNL     1       0.234  -2.017   1.304  0.00  0.00    +0.043 A 
ATOM      7  C   UNL     1       0.272  -0.630   1.338  0.00  0.00    +0.017 A 
ATOM      8  C   UNL     1       0.180  -2.822   2.550  0.00  0.00    +0.083 C 
ATOM      9  C   UNL     1      -0.175  -4.119   2.438  0.00  0.00    +0.027 C 
ATOM     10  C   UNL     1      -0.227  -4.955   3.697  0.00  0.00    +0.162 C 
ATOM     11  N   UNL     1       0.120  -4.261   4.943  0.00  0.00    -0.208 N 
ATOM     12  C   UNL     1       0.460  -2.924   4.891  0.00  0.00    +0.237 C 
ATOM     13  N   UNL     1       0.478  -2.271   3.752  0.00  0.00    -0.213 NA
ATOM     14  N   UNL     1       0.729  -2.537   6.158  0.00  0.00    -0.205 NA
ATOM     15  C   UNL     1       0.580  -3.539   6.980  0.00  0.00    +0.203 C 
ATOM     16  N   UNL     1       0.201  -4.646   6.284  0.00  0.00    -0.251 N 
ATOM     17  C   UNL     1      -0.517  -4.704   1.099  0.00  0.00    +0.238 C 
ATOM     18  O   UNL     1       0.222  -4.049   0.066  0.00  0.00    -0.479 OA
ATOM     19  H   UNL     1       0.023  -5.527   6.646  0.00  0.00    +0.171 HD
ENDROOT
BRANCH  10  20
ATOM     20  C   UNL     1       0.720  -6.115   3.530  0.00  0.00    +0.014 A 
ATOM     21  C   UNL     1       2.026  -6.011   3.970  0.00  0.00    +0.008 A 
ATOM     22  C   UNL     1       2.895  -7.075   3.817  0.00  0.00    +0.001 A 
ATOM     23  C   UNL     1       2.458  -8.245   3.224  0.00  0.00    +0.003 A 
ATOM     24  C   UNL     1       1.153  -8.352   2.784  0.00  0.00    +0.039 A 
ATOM     25  C   UNL     1       0.280  -7.289   2.942  0.00  0.00    +0.129 A 
ATOM     26  F   UNL     1      -0.998  -7.394   2.516  0.00  0.00    -0.205 F 
ENDBRANCH  10  20
BRANCH  17  27
ATOM     27  C   UNL     1      -1.991  -4.529   0.839  0.00  0.00    +0.039 A 
ATOM     28  C   UNL     1      -2.844  -4.222   1.882  0.00  0.00    +0.015 A 
ATOM     29  C   UNL     1      -4.196  -4.061   1.648  0.00  0.00    +0.046 A 
ATOM     30  C   UNL     1      -4.701  -4.208   0.363  0.00  0.00    +0.124 A 
ATOM     31  C   UNL     1      -3.847  -4.517  -0.684  0.00  0.00    +0.091 A 
ATOM     32  C   UNL     1      -2.490  -4.672  -0.448  0.00  0.00    +0.131 A 
BRANCH  32  33
ATOM     33  O   UNL     1      -1.650  -4.968  -1.474  0.00  0.00    -0.495 OA
ATOM     34  C   UNL     1      -2.233  -5.100  -2.772  0.00  0.00    +0.277 C 
ENDBRANCH  32  33
BRANCH  30  35
ATOM     35  O   UNL     1      -6.031  -4.050   0.134  0.00  0.00    -0.495 OA
ATOM     36  C   UNL     1      -6.851  -3.733   1.260  0.00  0.00    +0.277 C 
ENDBRANCH  30  35
ENDBRANCH  17  27
TORSDOF 4
