REMARK  Name = ZINC35661879
REMARK  11 active torsions:
REMARK  status: ('A' for Active; 'I' for Inactive)
REMARK    1  A    between atoms: C_1  and  C_2
REMARK    2  A    between atoms: C_2  and  C_3
REMARK    3  A    between atoms: C_3  and  C_4
REMARK    4  A    between atoms: C_3  and  N_6
REMARK    5  A    between atoms: C_4  and  C_5
REMARK    6  A    between atoms: C_7  and  C_9
REMARK    7  A    between atoms: C_9  and  C_11
REMARK    8  A    between atoms: C_9  and  O_12
REMARK    9  A    between atoms: O_12  and  C_13
REMARK   10  A    between atoms: C_14  and  C_21
REMARK   11  A    between atoms: C_21  and  N_22
REMARK                            x       y       z     vdW  Elec       q    Type
REMARK                         _______ _______ _______ _____ _____    ______ ____
ROOT
ATOM      1  C   UNL     1       6.258   0.000   3.566  0.00  0.00    +0.141 A 
ATOM      2  C   UNL     1       6.551  -1.351   3.670  0.00  0.00    -0.020 A 
ATOM      3  C   UNL     1       7.860  -1.764   3.820  0.00  0.00    +0.025 A 
ATOM      4  C   UNL     1       8.881  -0.831   3.865  0.00  0.00    +0.043 A 
ATOM      5  C   UNL     1       8.592   0.518   3.761  0.00  0.00    +0.043 A 
ATOM      6  C   UNL     1       7.283   0.935   3.606  0.00  0.00    +0.084 A 
ATOM      7 CL   UNL     1       6.920   2.628   3.468  0.00  0.00    -0.080 Cl
ATOM      8 CL   UNL     1      10.526  -1.353   4.053  0.00  0.00    -0.083 Cl
ENDROOT
BRANCH   1   9
ATOM      9  O   UNL     1       4.969   0.408   3.419  0.00  0.00    -0.478 OA
BRANCH   9  10
ATOM     10  C   UNL     1       4.463   0.492   2.085  0.00  0.00    +0.256 C 
ATOM     11  C   UNL     1       4.568   1.936   1.590  0.00  0.00    +0.062 C 
BRANCH  10  13
ATOM     12  N   UNL     1       2.361  -0.040   0.895  0.00  0.00    -0.309 N 
ATOM     13  C   UNL     1       3.020   0.059   2.067  0.00  0.00    +0.254 C 
ATOM     14  O   UNL     1       2.452  -0.202   3.106  0.00  0.00    -0.272 OA
ATOM     15  H   UNL     1       2.816   0.168   0.064  0.00  0.00    +0.149 HD
BRANCH  12  16
ATOM     16  C   UNL     1       0.958  -0.462   0.878  0.00  0.00    +0.073 C 
BRANCH  16  18
ATOM     17  C   UNL     1       0.241   1.608  -0.324  0.00  0.00    +0.006 C 
ATOM     18  C   UNL     1       0.279   0.079  -0.382  0.00  0.00    +0.019 C 
ENDBRANCH  16  18
BRANCH  16  19
ATOM     19  C   UNL     1       0.885  -1.990   0.880  0.00  0.00    +0.019 C 
ATOM     20  C   UNL     1       1.452  -2.526   2.196  0.00  0.00    +0.006 C 
ENDBRANCH  16  19
ENDBRANCH  12  16
ENDBRANCH  10  13
ENDBRANCH   9  10
ENDBRANCH   1   9
BRANCH   2  21
ATOM     21  C   UNL     1       5.440  -2.369   3.622  0.00  0.00    -0.047 C 
BRANCH  21  22
ATOM     22  N   UNL     1       5.091  -2.646   2.222  0.00  0.00    +0.381 N 
ATOM     23  H   UNL     1       4.425  -3.404   2.185  0.00  0.00    -0.090 HD
ATOM     24  H   UNL     1       4.685  -1.821   1.807  0.00  0.00    -0.090 HD
ATOM     25  H   UNL     1       5.922  -2.904   1.712  0.00  0.00    -0.090 HD
ENDBRANCH  21  22
ENDBRANCH   2  21
TORSDOF 8
