REMARK  Name = ZINC08964004
REMARK  11 active torsions:
REMARK  status: ('A' for Active; 'I' for Inactive)
REMARK    1  A    between atoms: C_1  and  C_2
REMARK    2  A    between atoms: C_5  and  C_29
REMARK    3  A    between atoms: C_6  and  N_8
REMARK    4  A    between atoms: C_9  and  C_11
REMARK    5  A    between atoms: N_13  and  C_14
REMARK    6  A    between atoms: C_14  and  C_15
REMARK    7  A    between atoms: C_15  and  C_17
REMARK    8  A    between atoms: C_15  and  N_59
REMARK    9  A    between atoms: N_25  and  C_26
REMARK   10  A    between atoms: C_27  and  N_59
REMARK   11  A    between atoms: C_28  and  N_59
REMARK                            x       y       z     vdW  Elec       q    Type
REMARK                         _______ _______ _______ _____ _____    ______ ____
ROOT
ATOM      1  C   UNL     1      -6.955   5.926  -0.708  0.00  0.00    +0.299 C 
ATOM      2  O   UNL     1      -7.149   4.986   0.035  0.00  0.00    -0.265 OA
ATOM      3  N   UNL     1      -5.701   6.226  -1.101  0.00  0.00    -0.309 N 
ATOM      4  H   UNL     1      -5.545   6.977  -1.694  0.00  0.00    +0.149 HD
ENDROOT
BRANCH   1   6
ATOM      5  N   UNL     1      -9.359   6.450  -0.794  0.00  0.00    -0.278 N 
ATOM      6  C   UNL     1      -8.105   6.750  -1.187  0.00  0.00    +0.303 C 
ATOM      7  O   UNL     1      -7.910   7.689  -1.930  0.00  0.00    -0.265 OA
ATOM      8  H   UNL     1      -9.509   5.735  -0.156  0.00  0.00    +0.155 HD
BRANCH   5  14
ATOM      9  C   UNL     1     -11.168  10.629  -2.643  0.00  0.00    +0.044 C 
ATOM     10  C   UNL     1     -11.348   9.197  -2.210  0.00  0.00    -0.049 A 
ATOM     11  C   UNL     1     -12.587   8.593  -2.318  0.00  0.00    +0.004 A 
ATOM     12  C   UNL     1     -12.757   7.280  -1.921  0.00  0.00    +0.005 A 
ATOM     13  C   UNL     1     -11.688   6.566  -1.415  0.00  0.00    -0.029 A 
ATOM     14  C   UNL     1     -10.442   7.169  -1.306  0.00  0.00    +0.037 A 
ATOM     15  C   UNL     1     -10.276   8.491  -1.701  0.00  0.00    +0.027 A 
ATOM     16  C   UNL     1     -11.874   5.134  -0.983  0.00  0.00    +0.045 C 
ENDBRANCH   5  14
ENDBRANCH   1   6
BRANCH   3  17
ATOM     17  C   UNL     1      -4.573   5.418  -0.630  0.00  0.00    +0.094 C 
BRANCH  17  18
ATOM     18  C   UNL     1      -3.263   6.037  -1.120  0.00  0.00    -0.021 C 
BRANCH  18  19
ATOM     19  C   UNL     1      -2.100   5.250  -0.573  0.00  0.00    -0.059 A 
ATOM     20  C   UNL     1      -1.755   5.359   0.762  0.00  0.00    +0.004 A 
ATOM     21  C   UNL     1      -0.694   4.638   1.267  0.00  0.00    +0.023 A 
ATOM     22  C   UNL     1       0.040   3.794   0.435  0.00  0.00    +0.033 A 
ATOM     23  C   UNL     1      -0.311   3.695  -0.907  0.00  0.00    -0.025 A 
ATOM     24  C   UNL     1      -1.375   4.417  -1.406  0.00  0.00    +0.007 A 
ATOM     25  C   UNL     1       0.648   2.727  -1.570  0.00  0.00    +0.056 C 
ATOM     26  C   UNL     1       1.802   2.630  -0.546  0.00  0.00    +0.109 C 
ATOM     27  N   UNL     1       1.136   2.969   0.731  0.00  0.00    -0.332 N 
ATOM     28  C   UNL     1       2.068   3.635   1.650  0.00  0.00    +0.129 C 
ENDBRANCH  18  19
BRANCH  18  31
ATOM     29  C   UNL     1      -3.880   7.601   0.623  0.00  0.00    -0.096 C 
ATOM     30  C   UNL     1      -1.774   7.859  -0.545  0.00  0.00    -0.096 C 
ATOM     31  N   UNL     1      -3.188   7.444  -0.673  0.00  0.00    +0.382 N 
ATOM     32  H   UNL     1      -3.648   8.041  -1.371  0.00  0.00    -0.082 HD
ENDBRANCH  18  31
ENDBRANCH  17  18
ENDBRANCH   3  17
TORSDOF 6
