REMARK  Name = ZINC35636945
REMARK  8 active torsions:
REMARK  status: ('A' for Active; 'I' for Inactive)
REMARK    1  A    between atoms: C_1  and  C_2
REMARK    2  A    between atoms: C_2  and  C_4
REMARK    3  A    between atoms: C_2  and  N_15
REMARK    4  A    between atoms: C_12  and  C_14
REMARK    5  A    between atoms: C_21  and  C_30
REMARK    6  A    between atoms: N_26  and  C_27
REMARK    7  A    between atoms: C_27  and  C_28
REMARK    8  A    between atoms: C_35  and  C_36
REMARK                            x       y       z     vdW  Elec       q    Type
REMARK                         _______ _______ _______ _____ _____    ______ ____
ROOT
ATOM      1  N   UNL     1       1.774   0.487  -2.054  0.00  0.00    -0.281 N 
ATOM      2  C   UNL     1       1.181  -0.485  -2.984  0.00  0.00    +0.160 C 
ATOM      3  C   UNL     1       1.935  -0.294  -4.281  0.00  0.00    +0.043 C 
ATOM      4  C   UNL     1       2.837   0.683  -4.055  0.00  0.00    +0.058 C 
ATOM      5  C   UNL     1       2.733   1.149  -2.728  0.00  0.00    +0.247 C 
ATOM      6  O   UNL     1       3.424   2.032  -2.252  0.00  0.00    -0.270 OA
ATOM      7  C   UNL     1       3.743   1.085  -5.201  0.00  0.00    +0.142 C 
ATOM      8  N   UNL     1       3.561   0.370  -6.476  0.00  0.00    -0.288 N 
ATOM      9  C   UNL     1       2.614  -0.586  -6.547  0.00  0.00    +0.307 C 
ATOM     10  O   UNL     1       2.457  -1.182  -7.595  0.00  0.00    -0.252 OA
ATOM     11  N   UNL     1       1.840  -0.901  -5.500  0.00  0.00    -0.253 N 
ATOM     12  H   UNL     1       4.111   0.583  -7.246  0.00  0.00    +0.151 HD
ENDROOT
BRANCH   7  13
ATOM     13  C   UNL     1       3.539   2.555  -5.461  0.00  0.00    -0.011 A 
ATOM     14  C   UNL     1       2.353   3.002  -6.013  0.00  0.00    +0.006 A 
ATOM     15  C   UNL     1       2.166   4.351  -6.251  0.00  0.00    +0.000 A 
ATOM     16  C   UNL     1       3.166   5.253  -5.936  0.00  0.00    +0.001 A 
ATOM     17  C   UNL     1       4.351   4.807  -5.383  0.00  0.00    +0.013 A 
ATOM     18  C   UNL     1       4.536   3.458  -5.141  0.00  0.00    +0.060 A 
BRANCH  18  19
ATOM     19  C   UNL     1       5.826   2.972  -4.533  0.00  0.00    +0.418 C 
ATOM     20  F   UNL     1       6.695   4.054  -4.356  0.00  0.00    -0.166 F 
ATOM     21  F   UNL     1       5.563   2.377  -3.295  0.00  0.00    -0.166 F 
ATOM     22  F   UNL     1       6.418   2.033  -5.385  0.00  0.00    -0.166 F 
ENDBRANCH  18  19
ENDBRANCH   7  13
BRANCH   1  24
ATOM     23  C   UNL     1       0.914   2.144  -0.473  0.00  0.00    +0.038 C 
ATOM     24  C   UNL     1       1.389   0.701  -0.657  0.00  0.00    +0.160 C 
BRANCH  24  25
ATOM     25  C   UNL     1       2.576   0.446   0.236  0.00  0.00    +0.236 C 
ATOM     26  O   UNL     1       3.696   0.448  -0.229  0.00  0.00    -0.274 OA
ATOM     27  N   UNL     1       2.393   0.214   1.551  0.00  0.00    -0.297 N 
ATOM     28  C   UNL     1       1.038   0.102   2.109  0.00  0.00    +0.127 C 
ATOM     29  C   UNL     1       0.920  -1.240   2.843  0.00  0.00    +0.126 C 
ATOM     30  N   UNL     1       2.072  -1.384   3.745  0.00  0.00    -0.299 N 
ATOM     31  C   UNL     1       3.427  -1.272   3.187  0.00  0.00    +0.126 C 
ATOM     32  C   UNL     1       3.545   0.064   2.452  0.00  0.00    +0.127 C 
ATOM     33  C   UNL     1       1.889  -1.615   5.060  0.00  0.00    +0.213 C 
ATOM     34  O   UNL     1       0.773  -1.573   5.533  0.00  0.00    -0.276 OA
ATOM     35  C   UNL     1       3.070  -1.927   5.942  0.00  0.00    +0.109 C 
ENDBRANCH  24  25
ENDBRANCH   1  24
BRANCH  11  36
ATOM     36  C   UNL     1       0.837  -1.955  -5.673  0.00  0.00    +0.141 C 
BRANCH  36  37
ATOM     37  C   UNL     1      -0.458  -1.344  -6.142  0.00  0.00    -0.015 C 
ATOM     38  C   UNL     1      -1.028  -1.778  -7.239  0.00  0.00    +0.005 C 
ENDBRANCH  36  37
ENDBRANCH  11  36
TORSDOF 6
