REMARK  Name = ZINC03847300
REMARK  8 active torsions:
REMARK  status: ('A' for Active; 'I' for Inactive)
REMARK    1  A    between atoms: C_1  and  C_2
REMARK    2  A    between atoms: C_6  and  O_10
REMARK    3  A    between atoms: C_7  and  O_8
REMARK    4  A    between atoms: O_8  and  C_9
REMARK    5  A    between atoms: O_10  and  C_11
REMARK    6  A    between atoms: C_14  and  C_16
REMARK    7  A    between atoms: C_16  and  C_17
REMARK    8  A    between atoms: C_20  and  O_23
REMARK                            x       y       z     vdW  Elec       q    Type
REMARK                         _______ _______ _______ _____ _____    ______ ____
ROOT
ATOM      1  C   UNL     1       2.288   4.388  -0.011  0.00  0.00    +0.048 C 
ATOM      2  C   UNL     1       1.018   3.577  -0.013  0.00  0.00    -0.003 A 
ATOM      3  C   UNL     1       1.045   2.256  -0.437  0.00  0.00    -0.051 A 
ATOM      4  C   UNL     1      -0.116   1.512  -0.438  0.00  0.00    -0.044 A 
ATOM      5  C   UNL     1      -1.306   2.085  -0.014  0.00  0.00    +0.053 A 
ATOM      6  C   UNL     1      -1.339   3.403   0.404  0.00  0.00    +0.162 A 
ATOM      7  C   UNL     1      -0.167   4.154   0.407  0.00  0.00    +0.165 A 
ATOM      8  C   UNL     1      -0.133   0.072  -0.885  0.00  0.00    +0.016 C 
ATOM      9  C   UNL     1       1.134  -0.242  -1.681  0.00  0.00    -0.077 C 
ATOM     10  C   UNL     1       2.360   1.676  -0.890  0.00  0.00    -0.036 C 
ATOM     11  N   UNL     1       2.301   0.208  -0.901  0.00  0.00    +0.384 N 
ATOM     12  H   UNL     1       3.159  -0.163  -1.327  0.00  0.00    -0.085 HD
ATOM     13  H   UNL     1       2.221  -0.137   0.062  0.00  0.00    -0.085 HD
ENDROOT
BRANCH   7  14
ATOM     14  O   UNL     1      -0.186   5.449   0.821  0.00  0.00    -0.491 OA
ATOM     15  C   UNL     1      -0.435   6.444  -0.174  0.00  0.00    +0.277 C 
ENDBRANCH   7  14
BRANCH   6  16
ATOM     16  O   UNL     1      -2.509   3.962   0.814  0.00  0.00    -0.491 OA
ATOM     17  C   UNL     1      -3.671   3.130   0.783  0.00  0.00    +0.277 C 
ENDBRANCH   6  16
BRANCH  10  18
ATOM     18  C   UNL     1       3.465   2.126   0.067  0.00  0.00    +0.024 C 
BRANCH  18  19
ATOM     19  C   UNL     1       3.111   1.715   1.473  0.00  0.00    -0.048 A 
ATOM     20  C   UNL     1       2.388   2.573   2.281  0.00  0.00    +0.007 A 
ATOM     21  C   UNL     1       2.057   2.196   3.569  0.00  0.00    +0.045 A 
ATOM     22  C   UNL     1       2.459   0.960   4.054  0.00  0.00    +0.117 A 
ATOM     23  C   UNL     1       3.189   0.104   3.243  0.00  0.00    +0.045 A 
ATOM     24  C   UNL     1       3.513   0.483   1.954  0.00  0.00    +0.007 A 
BRANCH  22  25
ATOM     25  O   UNL     1       2.139   0.590   5.322  0.00  0.00    -0.507 OA
ATOM     26  H   UNL     1       2.797   0.843   5.983  0.00  0.00    +0.292 HD
ENDBRANCH  22  25
ENDBRANCH  18  19
ENDBRANCH  10  18
TORSDOF 5
