REMARK  Name = ZINC33699570
REMARK  8 active torsions:
REMARK  status: ('A' for Active; 'I' for Inactive)
REMARK    1  A    between atoms: C_7  and  O_11
REMARK    2  A    between atoms: O_11  and  C_12
REMARK    3  A    between atoms: C_12  and  C_13
REMARK    4  A    between atoms: N_15  and  C_16
REMARK    5  A    between atoms: C_16  and  C_18
REMARK    6  A    between atoms: C_16  and  C_26
REMARK    7  A    between atoms: C_18  and  C_19
REMARK    8  A    between atoms: C_22  and  O_25
REMARK                            x       y       z     vdW  Elec       q    Type
REMARK                         _______ _______ _______ _____ _____    ______ ____
ROOT
ATOM      1  C   UNL     1      -1.194   2.119   0.019  0.00  0.00    +0.251 C 
ATOM      2  O   UNL     1      -2.236   1.498   0.021  0.00  0.00    -0.272 OA
ATOM      3  N   UNL     1      -0.018   1.461   0.010  0.00  0.00    -0.301 N 
ATOM      4  H   UNL     1       0.927   2.024   0.009  0.00  0.00    +0.150 HD
ENDROOT
BRANCH   1   5
ATOM      5  C   UNL     1      -1.214   3.626   0.028  0.00  0.00    +0.324 C 
BRANCH   5   6
ATOM      6  O   UNL     1      -2.568   4.083   0.036  0.00  0.00    -0.481 OA
BRANCH   6  13
ATOM      7  C   UNL     1      -6.603   7.002   0.070  0.00  0.00    +0.020 A 
ATOM      8  C   UNL     1      -5.557   7.881   0.069  0.00  0.00    +0.013 A 
ATOM      9  C   UNL     1      -4.251   7.359   0.061  0.00  0.00    +0.022 A 
ATOM     10  C   UNL     1      -3.126   8.201   0.060  0.00  0.00    +0.050 A 
ATOM     11  C   UNL     1      -1.876   7.658   0.052  0.00  0.00    +0.024 A 
ATOM     12  C   UNL     1      -1.695   6.278   0.044  0.00  0.00    +0.049 A 
ATOM     13  C   UNL     1      -2.764   5.428   0.045  0.00  0.00    +0.147 A 
ATOM     14  C   UNL     1      -4.074   5.953   0.048  0.00  0.00    +0.114 A 
ATOM     15  N   UNL     1      -5.139   5.148   0.054  0.00  0.00    -0.251 NA
ATOM     16  C   UNL     1      -6.358   5.631   0.062  0.00  0.00    +0.111 A 
ATOM     17 CL   UNL     1      -3.327   9.925   0.069  0.00  0.00    -0.083 Cl
ENDBRANCH   6  13
ENDBRANCH   5   6
ENDBRANCH   1   5
BRANCH   3  18
ATOM     18  C   UNL     1       0.002  -0.004   0.002  0.00  0.00    +0.163 C 
BRANCH  18  19
ATOM     19  C   UNL     1      -0.101  -0.516   1.416  0.00  0.00    +0.231 C 
ATOM     20  O   UNL     1      -0.184   0.266   2.339  0.00  0.00    -0.274 OA
ATOM     21  N   UNL     1      -0.103  -1.842   1.654  0.00  0.00    -0.328 N 
ATOM     22  H   UNL     1      -0.178  -2.216   2.686  0.00  0.00    +0.145 HD
ATOM     23  H   UNL     1      -0.028  -2.551   0.817  0.00  0.00    +0.145 HD
ENDBRANCH  18  19
BRANCH  18  24
ATOM     24  C   UNL     1       1.310  -0.493  -0.623  0.00  0.00    +0.067 C 
BRANCH  24  25
ATOM     25  C   UNL     1       1.357  -0.086  -2.073  0.00  0.00    -0.045 A 
ATOM     26  C   UNL     1       0.853  -0.931  -3.044  0.00  0.00    +0.007 A 
ATOM     27  C   UNL     1       0.890  -0.557  -4.373  0.00  0.00    +0.045 A 
ATOM     28  C   UNL     1       1.444   0.662  -4.735  0.00  0.00    +0.117 A 
ATOM     29  C   UNL     1       1.954   1.506  -3.759  0.00  0.00    +0.045 A 
ATOM     30  C   UNL     1       1.910   1.130  -2.431  0.00  0.00    +0.007 A 
BRANCH  28  31
ATOM     31  O   UNL     1       1.486   1.030  -6.043  0.00  0.00    -0.507 OA
ATOM     32  H   UNL     1       1.925   1.997  -6.328  0.00  0.00    +0.292 HD
ENDBRANCH  28  31
ENDBRANCH  24  25
ENDBRANCH  18  24
ENDBRANCH   3  18
TORSDOF 8
