REMARK  Name = ZINC38734662
REMARK  10 active torsions:
REMARK  status: ('A' for Active; 'I' for Inactive)
REMARK    1  A    between atoms: C_1  and  O_2
REMARK    2  A    between atoms: O_2  and  C_3
REMARK    3  A    between atoms: C_3  and  C_5
REMARK    4  A    between atoms: C_5  and  C_7
REMARK    5  A    between atoms: C_5  and  N_17
REMARK    6  A    between atoms: C_7  and  C_8
REMARK    7  A    between atoms: C_18  and  C_20
REMARK    8  A    between atoms: C_23  and  C_26
REMARK    9  A    between atoms: C_26  and  S_27
REMARK   10  A    between atoms: S_27  and  C_28
REMARK                            x       y       z     vdW  Elec       q    Type
REMARK                         _______ _______ _______ _____ _____    ______ ____
ROOT
ATOM      1  N   UNL     1      -2.643  -2.570   0.013  0.00  0.00    -0.298 N 
ATOM      2  C   UNL     1      -3.306  -2.679   1.182  0.00  0.00    +0.245 C 
ATOM      3  O   UNL     1      -2.742  -2.417   2.227  0.00  0.00    -0.270 OA
ATOM      4  H   UNL     1      -3.092  -2.779  -0.820  0.00  0.00    +0.150 HD
ENDROOT
BRANCH   2   5
ATOM      5  C   UNL     1      -4.718  -3.117   1.193  0.00  0.00    +0.037 A 
ATOM      6  C   UNL     1      -5.365  -3.425  -0.004  0.00  0.00    +0.013 A 
ATOM      7  C   UNL     1      -6.683  -3.834   0.013  0.00  0.00    +0.005 A 
ATOM      8  C   UNL     1      -7.362  -3.939   1.214  0.00  0.00    -0.037 A 
ATOM      9  C   UNL     1      -6.726  -3.635   2.405  0.00  0.00    +0.005 A 
ATOM     10  C   UNL     1      -5.407  -3.231   2.402  0.00  0.00    +0.013 A 
BRANCH   8  11
ATOM     11  C   UNL     1      -8.801  -4.386   1.225  0.00  0.00    +0.111 C 
BRANCH  11  12
ATOM     12  S   UNL     1      -8.872  -6.192   1.374  0.00  0.00    -0.101 S 
BRANCH  12  13
ATOM     13  C   UNL     1     -10.597  -6.553   1.373  0.00  0.00    +0.098 A 
ATOM     14  C   UNL     1     -11.018  -7.887   1.482  0.00  0.00    +0.035 A 
ATOM     15  C   UNL     1     -12.348  -8.180   1.483  0.00  0.00    +0.012 A 
ATOM     16  C   UNL     1     -13.268  -7.116   1.373  0.00  0.00    +0.000 A 
ATOM     17  C   UNL     1     -14.652  -7.348   1.369  0.00  0.00    +0.010 A 
ATOM     18  C   UNL     1     -15.510  -6.296   1.262  0.00  0.00    +0.001 A 
ATOM     19  C   UNL     1     -15.033  -4.992   1.157  0.00  0.00    +0.002 A 
ATOM     20  C   UNL     1     -13.696  -4.732   1.157  0.00  0.00    +0.028 A 
ATOM     21  C   UNL     1     -12.780  -5.791   1.266  0.00  0.00    +0.072 A 
ATOM     22  N   UNL     1     -11.461  -5.563   1.275  0.00  0.00    -0.240 NA
ENDBRANCH  12  13
ENDBRANCH  11  12
ENDBRANCH   8  11
ENDBRANCH   2   5
BRANCH   1  23
ATOM     23  C   UNL     1      -1.244  -2.135   0.003  0.00  0.00    +0.186 C 
BRANCH  23  24
ATOM     24  C   UNL     1      -1.185  -0.630   0.010  0.00  0.00    +0.328 C 
ATOM     25  O   UNL     1      -2.208   0.015   0.023  0.00  0.00    -0.249 OA
BRANCH  24  27
ATOM     26  C   UNL     1      -0.017   1.425   0.010  0.00  0.00    +0.280 C 
ATOM     27  O   UNL     1       0.002  -0.004   0.002  0.00  0.00    -0.467 OA
ENDBRANCH  24  27
ENDBRANCH  23  24
BRANCH  23  28
ATOM     28  C   UNL     1      -0.555  -2.666  -1.256  0.00  0.00    +0.071 C 
BRANCH  28  29
ATOM     29  C   UNL     1      -0.505  -4.172  -1.204  0.00  0.00    -0.020 A 
ATOM     30  C   UNL     1      -1.561  -5.094  -1.629  0.00  0.00    +0.003 A 
ATOM     31  C   UNL     1      -2.837  -4.925  -2.168  0.00  0.00    +0.010 A 
ATOM     32  C   UNL     1      -3.598  -6.021  -2.466  0.00  0.00    +0.001 A 
ATOM     33  C   UNL     1      -3.112  -7.300  -2.236  0.00  0.00    +0.002 A 
ATOM     34  C   UNL     1      -1.855  -7.490  -1.704  0.00  0.00    +0.026 A 
ATOM     35  C   UNL     1      -1.063  -6.389  -1.394  0.00  0.00    +0.047 A 
ATOM     36  N   UNL     1       0.201  -6.249  -0.866  0.00  0.00    -0.360 N 
ATOM     37  C   UNL     1       0.519  -4.922  -0.766  0.00  0.00    +0.087 A 
ATOM     38  H   UNL     1       0.781  -6.982  -0.608  0.00  0.00    +0.165 HD
ENDBRANCH  28  29
ENDBRANCH  23  28
ENDBRANCH   1  23
TORSDOF 9
