REMARK  Name = ZINC12152463
REMARK  13 active torsions:
REMARK  status: ('A' for Active; 'I' for Inactive)
REMARK    1  A    between atoms: C_1  and  C_2
REMARK    2  A    between atoms: C_2  and  C_4
REMARK    3  A    between atoms: C_2  and  N_59
REMARK    4  A    between atoms: C_4  and  C_5
REMARK    5  A    between atoms: C_5  and  C_6
REMARK    6  A    between atoms: C_6  and  C_7
REMARK    7  A    between atoms: C_7  and  C_8
REMARK    8  A    between atoms: C_7  and  C_9
REMARK    9  A    between atoms: C_7  and  O_10
REMARK   10  A    between atoms: C_11  and  C_12
REMARK   11  A    between atoms: C_11  and  N_59
REMARK   12  A    between atoms: N_20  and  C_23
REMARK   13  A    between atoms: C_23  and  C_24
REMARK                            x       y       z     vdW  Elec       q    Type
REMARK                         _______ _______ _______ _____ _____    ______ ____
ROOT
ATOM      1  C   UNL     1      -2.361   1.219   2.920  0.00  0.00    +0.001 A 
ATOM      2  C   UNL     1      -2.052   2.398   3.516  0.00  0.00    +0.017 A 
ATOM      3  C   UNL     1      -0.995   3.223   2.929  0.00  0.00    -0.001 A 
ATOM      4  C   UNL     1      -0.633   4.448   3.500  0.00  0.00    +0.011 A 
ATOM      5  C   UNL     1       0.358   5.194   2.929  0.00  0.00    +0.021 A 
ATOM      6  C   UNL     1       1.010   4.747   1.786  0.00  0.00    +0.043 A 
ATOM      7  C   UNL     1       0.669   3.542   1.207  0.00  0.00    +0.046 A 
ATOM      8  C   UNL     1      -0.333   2.764   1.774  0.00  0.00    +0.054 A 
ATOM      9  N   UNL     1      -0.698   1.558   1.213  0.00  0.00    -0.302 N 
ATOM     10  C   UNL     1      -1.671   0.808   1.760  0.00  0.00    +0.253 A 
ATOM     11  O   UNL     1      -1.964  -0.255   1.240  0.00  0.00    -0.267 OA
ATOM     12 CL   UNL     1       2.266   5.715   1.079  0.00  0.00    -0.083 Cl
ENDROOT
BRANCH   1  13
ATOM     13  C   UNL     1      -3.444   0.346   3.498  0.00  0.00    -0.041 C 
BRANCH  13  14
ATOM     14  N   UNL     1      -4.715   0.631   2.806  0.00  0.00    +0.384 N 
ATOM     15  H   UNL     1      -4.958   1.620   2.937  0.00  0.00    -0.085 HD
ATOM     16  H   UNL     1      -4.607   0.434   1.804  0.00  0.00    -0.085 HD
BRANCH  14  18
ATOM     17  C   UNL     1      -5.790  -1.570   2.650  0.00  0.00    -0.014 C 
ATOM     18  C   UNL     1      -5.796  -0.211   3.353  0.00  0.00    -0.075 C 
BRANCH  18  19
ATOM     19  C   UNL     1      -7.140   0.480   3.116  0.00  0.00    -0.016 C 
BRANCH  19  20
ATOM     20  C   UNL     1      -7.194   1.781   3.920  0.00  0.00    +0.001 C 
BRANCH  20  21
ATOM     21  C   UNL     1      -8.538   2.472   3.682  0.00  0.00    +0.034 C 
BRANCH  21  22
ATOM     22  C   UNL     1      -8.592   3.773   4.486  0.00  0.00    +0.061 C 
ATOM     23  C   UNL     1      -9.980   4.401   4.348  0.00  0.00    +0.041 C 
ATOM     24  C   UNL     1      -8.312   3.473   5.960  0.00  0.00    +0.041 C 
BRANCH  22  25
ATOM     25  O   UNL     1      -7.607   4.681   3.989  0.00  0.00    -0.389 OA
ATOM     26  H   UNL     1      -7.584   5.529   4.453  0.00  0.00    +0.210 HD
ENDBRANCH  22  25
ENDBRANCH  21  22
ENDBRANCH  20  21
ENDBRANCH  19  20
ENDBRANCH  18  19
ENDBRANCH  14  18
ENDBRANCH  13  14
ENDBRANCH   1  13
BRANCH   9  27
ATOM     27  C   UNL     1      -0.013   1.086   0.008  0.00  0.00    +0.180 C 
BRANCH  27  28
ATOM     28  C   UNL     1      -0.742   1.585  -1.213  0.00  0.00    +0.061 A 
ATOM     29  C   UNL     1      -0.324   2.750  -1.829  0.00  0.00    +0.025 A 
ATOM     30  C   UNL     1      -1.001   3.200  -2.952  0.00  0.00    +0.003 A 
ATOM     31  C   UNL     1      -2.078   2.459  -3.415  0.00  0.00    +0.020 A 
ATOM     32  C   UNL     1      -2.437   1.304  -2.747  0.00  0.00    +0.111 A 
ATOM     33  N   UNL     1      -1.767   0.903  -1.684  0.00  0.00    -0.258 NA
ENDBRANCH  27  28
ENDBRANCH   9  27
TORSDOF 10
