REMARK  Name = ZINC09499288
REMARK  4 active torsions:
REMARK  status: ('A' for Active; 'I' for Inactive)
REMARK    1  A    between atoms: C_1  and  C_2
REMARK    2  A    between atoms: C_7  and  C_8
REMARK    3  A    between atoms: N_24  and  C_27
REMARK    4  A    between atoms: C_32  and  C_33
REMARK                            x       y       z     vdW  Elec       q    Type
REMARK                         _______ _______ _______ _____ _____    ______ ____
ROOT
ATOM      1  C   UNL     1      -2.008   4.609   0.046  0.00  0.00    +0.044 C 
ATOM      2  C   UNL     1      -0.848   3.647   0.030  0.00  0.00    -0.046 A 
ATOM      3  C   UNL     1       0.448   4.132   0.021  0.00  0.00    +0.004 A 
ATOM      4  C   UNL     1       1.513   3.249   0.005  0.00  0.00    +0.005 A 
ATOM      5  C   UNL     1       1.282   1.891   0.000  0.00  0.00    -0.027 A 
ATOM      6  C   UNL     1      -0.017   1.392   0.010  0.00  0.00    +0.039 A 
ATOM      7  C   UNL     1      -1.083   2.288   0.030  0.00  0.00    -0.026 A 
ATOM      8  C   UNL     1      -2.499   1.771   0.047  0.00  0.00    +0.046 C 
ATOM      9  N   UNL     1       0.002  -0.004   0.002  0.00  0.00    -0.286 N 
ATOM     10  C   UNL     1       1.256  -0.495  -0.012  0.00  0.00    +0.212 C 
ATOM     11  O   UNL     1       1.576  -1.665  -0.020  0.00  0.00    -0.277 OA
ATOM     12  C   UNL     1       2.185   0.690  -0.015  0.00  0.00    +0.053 C 
ATOM     13  C   UNL     1       3.114   0.675   1.205  0.00  0.00    +0.089 C 
ATOM     14  C   UNL     1       4.452   0.093   0.674  0.00  0.00    +0.074 C 
ATOM     15  C   UNL     1       4.203  -0.193  -0.819  0.00  0.00    -0.054 C 
ATOM     16  C   UNL     1       3.660   2.028  -1.386  0.00  0.00    -0.076 C 
ATOM     17  C   UNL     1       5.036   1.768  -2.032  0.00  0.00    -0.020 C 
ATOM     18  C   UNL     1       5.408   0.299  -1.641  0.00  0.00    -0.016 C 
ATOM     19  C   UNL     1       5.414   1.251   0.809  0.00  0.00    +0.228 C 
ATOM     20  O   UNL     1       6.586   1.229   0.499  0.00  0.00    -0.275 OA
ATOM     21  N   UNL     1       4.771   2.305   1.325  0.00  0.00    -0.209 N 
ATOM     22  C   UNL     1       3.463   2.093   1.596  0.00  0.00    +0.229 C 
ATOM     23  O   UNL     1       2.692   2.899   2.071  0.00  0.00    -0.275 OA
ATOM     24  H   UNL     1      -0.795  -0.556   0.006  0.00  0.00    +0.155 HD
ATOM     25  N   UNL     1       3.102   0.679  -1.158  0.00  0.00    +0.395 N 
ATOM     26  H   UNL     1       2.618   0.347  -2.000  0.00  0.00    -0.079 HD
ENDROOT
BRANCH  21  27
ATOM     27  C   UNL     1       5.402   3.533   1.571  0.00  0.00    +0.056 A 
ATOM     28  C   UNL     1       5.436   4.508   0.582  0.00  0.00    +0.024 A 
ATOM     29  C   UNL     1       6.054   5.718   0.829  0.00  0.00    +0.002 A 
ATOM     30  C   UNL     1       6.648   5.955   2.055  0.00  0.00    +0.001 A 
ATOM     31  C   UNL     1       6.621   4.984   3.039  0.00  0.00    +0.014 A 
ATOM     32  C   UNL     1       6.000   3.774   2.800  0.00  0.00    +0.077 A 
BRANCH  32  33
ATOM     33  C   UNL     1       5.970   2.717   3.873  0.00  0.00    +0.419 C 
ATOM     34  F   UNL     1       6.631   3.189   5.012  0.00  0.00    -0.166 F 
ATOM     35  F   UNL     1       4.642   2.417   4.196  0.00  0.00    -0.166 F 
ATOM     36  F   UNL     1       6.608   1.562   3.409  0.00  0.00    -0.166 F 
ENDBRANCH  32  33
ENDBRANCH  21  27
TORSDOF 2
