REMARK  Name = ZINC15453606
REMARK  4 active torsions:
REMARK  status: ('A' for Active; 'I' for Inactive)
REMARK    1  A    between atoms: C_1  and  C_2
REMARK    2  A    between atoms: C_5  and  N_9
REMARK    3  A    between atoms: C_6  and  C_8
REMARK    4  A    between atoms: C_13  and  C_16
REMARK                            x       y       z     vdW  Elec       q    Type
REMARK                         _______ _______ _______ _____ _____    ______ ____
ROOT
ATOM      1  N   UNL     1       0.932  -2.117   0.308  0.00  0.00    -0.292 N 
ATOM      2  C   UNL     1       1.017  -0.747   0.375  0.00  0.00    +0.180 C 
ATOM      3  N   UNL     1       0.007  -0.004  -0.009  0.00  0.00    -0.127 NA
ATOM      4  N   UNL     1      -0.011   1.267   0.001  0.00  0.00    -0.151 NA
ATOM      5  C   UNL     1       1.006   2.062   0.013  0.00  0.00    +0.081 C 
ATOM      6  C   UNL     1       2.425   1.545  -0.008  0.00  0.00    +0.135 C 
ATOM      7  S   UNL     1       2.488   0.023   0.979  0.00  0.00    -0.082 S 
ATOM      8  H   UNL     1       1.709  -2.662   0.509  0.00  0.00    +0.154 HD
ENDROOT
BRANCH   5   9
ATOM      9  C   UNL     1       0.777   3.514   0.049  0.00  0.00    +0.003 A 
ATOM     10  C   UNL     1       1.863   4.396   0.063  0.00  0.00    +0.013 A 
ATOM     11  C   UNL     1       1.647   5.758   0.096  0.00  0.00    +0.050 A 
ATOM     12  C   UNL     1       0.351   6.253   0.115  0.00  0.00    +0.162 A 
ATOM     13  C   UNL     1      -0.733   5.383   0.101  0.00  0.00    +0.163 A 
ATOM     14  C   UNL     1      -0.529   4.018   0.063  0.00  0.00    +0.059 A 
ATOM     15  O   UNL     1      -2.001   5.888   0.120  0.00  0.00    -0.488 OA
ATOM     16  C   UNL     1      -2.400   6.533   1.331  0.00  0.00    +0.232 C 
ATOM     17  C   UNL     1      -1.944   7.983   1.345  0.00  0.00    +0.082 C 
ATOM     18  C   UNL     1      -0.429   8.114   1.356  0.00  0.00    +0.232 C 
ATOM     19  O   UNL     1       0.133   7.600   0.147  0.00  0.00    -0.488 OA
ENDBRANCH   5   9
BRANCH   1  24
ATOM     20  C   UNL     1      -3.965  -4.586  -1.141  0.00  0.00    +0.044 C 
ATOM     21  C   UNL     1      -2.664  -3.930  -0.756  0.00  0.00    -0.050 A 
ATOM     22  C   UNL     1      -2.668  -2.666  -0.196  0.00  0.00    +0.005 A 
ATOM     23  C   UNL     1      -1.478  -2.062   0.159  0.00  0.00    +0.024 A 
ATOM     24  C   UNL     1      -0.275  -2.726  -0.049  0.00  0.00    +0.036 A 
ATOM     25  C   UNL     1      -0.274  -3.993  -0.617  0.00  0.00    -0.029 A 
ATOM     26  C   UNL     1      -1.469  -4.594  -0.964  0.00  0.00    +0.008 A 
ATOM     27  C   UNL     1       1.028  -4.714  -0.850  0.00  0.00    +0.045 C 
ENDBRANCH   1  24
TORSDOF 2
