REMARK  Name = ZINC03188324
REMARK  9 active torsions:
REMARK  status: ('A' for Active; 'I' for Inactive)
REMARK    1  A    between atoms: C_1  and  C_2
REMARK    2  A    between atoms: C_2  and  N_3
REMARK    3  A    between atoms: N_3  and  C_4
REMARK    4  A    between atoms: N_3  and  C_6
REMARK    5  A    between atoms: C_4  and  C_5
REMARK    6  A    between atoms: C_9  and  C_12
REMARK    7  A    between atoms: N_14  and  C_15
REMARK    8  A    between atoms: C_15  and  N_17
REMARK    9  A    between atoms: C_20  and  C_23
REMARK                            x       y       z     vdW  Elec       q    Type
REMARK                         _______ _______ _______ _____ _____    ______ ____
ROOT
ATOM      1  C   UNL     1       2.447  -4.162  -0.030  0.00  0.00    +0.143 C 
ATOM      2  S   UNL     1       0.978  -5.042  -0.030  0.00  0.00    -0.018 S 
ENDROOT
BRANCH   1   3
ATOM      3  N   UNL     1       3.624  -4.817  -0.043  0.00  0.00    -0.276 N 
ATOM      4  C   UNL     1       3.647  -6.205  -0.057  0.00  0.00    +0.164 A 
ATOM      5  N   UNL     1       4.687  -7.014  -0.071  0.00  0.00    -0.225 NA
ATOM      6  C   UNL     1       4.533  -8.331  -0.084  0.00  0.00    +0.082 A 
ATOM      7  C   UNL     1       3.261  -8.828  -0.082  0.00  0.00    +0.077 A 
ATOM      8  S   UNL     1       2.311  -7.315  -0.053  0.00  0.00    -0.060 S 
ATOM      9  H   UNL     1       4.457  -4.318  -0.043  0.00  0.00    +0.156 HD
BRANCH   6  10
ATOM     10  C   UNL     1       5.708  -9.238  -0.100  0.00  0.00    +0.028 A 
ATOM     11  C   UNL     1       5.545 -10.616   0.004  0.00  0.00    +0.039 A 
ATOM     12  C   UNL     1       6.641 -11.410  -0.020  0.00  0.00    +0.080 A 
ATOM     13  S   UNL     1       7.964 -10.223  -0.181  0.00  0.00    -0.065 S 
ATOM     14  C   UNL     1       6.975  -8.738  -0.213  0.00  0.00    +0.089 A 
ATOM     15 CL   UNL     1       7.489  -7.085  -0.351  0.00  0.00    -0.075 Cl
ATOM     16 CL   UNL     1       6.736 -13.140   0.084  0.00  0.00    -0.076 Cl
ENDBRANCH   6  10
ENDBRANCH   1   3
BRANCH   1  19
ATOM     17  C   UNL     1       1.247  -2.159  -0.002  0.00  0.00    +0.250 C 
ATOM     18  O   UNL     1       0.204  -2.784  -0.003  0.00  0.00    -0.270 OA
ATOM     19  N   UNL     1       2.425  -2.814  -0.016  0.00  0.00    -0.264 N 
ATOM     20  H   UNL     1       3.257  -2.316  -0.016  0.00  0.00    +0.157 HD
BRANCH  17  24
ATOM     21  C   UNL     1       1.179   2.081   0.042  0.00  0.00    +0.030 A 
ATOM     22  C   UNL     1      -0.016   1.367   0.041  0.00  0.00    +0.024 A 
ATOM     23  C   UNL     1       0.002  -0.004   0.027  0.00  0.00    +0.015 A 
ATOM     24  C   UNL     1       1.224  -0.685   0.013  0.00  0.00    +0.037 A 
ATOM     25  C   UNL     1       2.422   0.035   0.014  0.00  0.00    +0.015 A 
ATOM     26  C   UNL     1       2.397   1.406   0.028  0.00  0.00    +0.024 A 
BRANCH  21  27
ATOM     27  N   UNL     1       1.157   3.471   0.057  0.00  0.00    -0.330 N 
BRANCH  27  29
ATOM     28  C   UNL     1       2.843   4.501  -1.385  0.00  0.00    +0.024 C 
ATOM     29  C   UNL     1       2.413   4.223   0.057  0.00  0.00    +0.102 C 
ENDBRANCH  27  29
BRANCH  27  30
ATOM     30  C   UNL     1      -0.124   4.183   0.071  0.00  0.00    +0.102 C 
ATOM     31  C   UNL     1      -0.561   4.415   1.519  0.00  0.00    +0.024 C 
ENDBRANCH  27  30
ENDBRANCH  21  27
ENDBRANCH  17  24
ENDBRANCH   1  19
TORSDOF 7
