REMARK  Name = ZINC08951421
REMARK  7 active torsions:
REMARK  status: ('A' for Active; 'I' for Inactive)
REMARK    1  A    between atoms: C_1  and  C_2
REMARK    2  A    between atoms: C_2  and  C_33
REMARK    3  A    between atoms: C_3  and  N_21
REMARK    4  A    between atoms: N_5  and  N_9
REMARK    5  A    between atoms: C_10  and  C_11
REMARK    6  A    between atoms: N_21  and  O_32
REMARK    7  A    between atoms: N_24  and  C_25
REMARK                            x       y       z     vdW  Elec       q    Type
REMARK                         _______ _______ _______ _____ _____    ______ ____
ROOT
ATOM      1  C   UNL     1       1.819  -4.733  -0.083  0.00  0.00    +0.026 C 
ATOM      2  C   UNL     1       2.494  -3.436  -0.532  0.00  0.00    +0.056 C 
ATOM      3  C   UNL     1       1.841  -2.208   0.136  0.00  0.00    +0.232 C 
ATOM      4  N   UNL     1       2.751  -1.465   0.977  0.00  0.00    -0.187 N 
ATOM      5  C   UNL     1       4.028  -1.850   1.118  0.00  0.00    +0.132 C 
ATOM      6  S   UNL     1       5.238  -1.090   2.060  0.00  0.00    -0.026 S 
ATOM      7  S   UNL     1       4.202  -3.317   0.123  0.00  0.00    -0.091 S 
ATOM      8  C   UNL     1       2.477  -3.308  -2.057  0.00  0.00    +0.026 C 
ENDROOT
BRANCH   3   9
ATOM      9  N   UNL     1       0.712  -2.662   0.952  0.00  0.00    -0.143 N 
ATOM     10  C   UNL     1      -0.545  -2.314   0.614  0.00  0.00    +0.331 C 
ATOM     11  O   UNL     1      -0.751  -1.703  -0.417  0.00  0.00    -0.250 OA
ATOM     12  N   UNL     1      -1.575  -2.642   1.420  0.00  0.00    -0.268 N 
ATOM     13  H   UNL     1      -1.405  -3.069   2.274  0.00  0.00    +0.156 HD
BRANCH  12  14
ATOM     14  C   UNL     1      -2.889  -2.368   1.023  0.00  0.00    +0.035 A 
ATOM     15  C   UNL     1      -3.238  -2.431  -0.319  0.00  0.00    +0.025 A 
ATOM     16  C   UNL     1      -4.537  -2.164  -0.707  0.00  0.00    +0.022 A 
ATOM     17  C   UNL     1      -5.487  -1.824   0.239  0.00  0.00    +0.041 A 
ATOM     18  C   UNL     1      -5.141  -1.756   1.578  0.00  0.00    +0.022 A 
ATOM     19  C   UNL     1      -3.845  -2.027   1.971  0.00  0.00    +0.025 A 
ATOM     20 CL   UNL     1      -7.117  -1.483  -0.252  0.00  0.00    -0.084 Cl
ENDBRANCH  12  14
BRANCH   9  21
ATOM     21  O   UNL     1       0.942  -3.467   2.094  0.00  0.00    -0.289 OA
ATOM     22  H   UNL     1       0.145  -3.653   2.610  0.00  0.00    +0.242 HD
ENDBRANCH   9  21
ENDBRANCH   3   9
BRANCH   4  23
ATOM     23  N   UNL     1       2.295  -0.323   1.649  0.00  0.00    -0.184 NA
ATOM     24  C   UNL     1       1.837   0.687   0.974  0.00  0.00    +0.140 C 
BRANCH  24  25
ATOM     25  C   UNL     1       1.254   1.840   1.680  0.00  0.00    +0.020 A 
ATOM     26  C   UNL     1       0.737   2.964   1.114  0.00  0.00    +0.093 A 
ATOM     27  N   UNL     1       0.293   3.807   2.089  0.00  0.00    -0.360 N 
ATOM     28  H   UNL     1      -0.116   4.672   1.930  0.00  0.00    +0.165 HD
ATOM     29  C   UNL     1       0.508   3.253   3.333  0.00  0.00    +0.047 A 
ATOM     30  C   UNL     1       1.116   2.002   3.138  0.00  0.00    +0.008 A 
ATOM     31  C   UNL     1       1.452   1.210   4.235  0.00  0.00    +0.010 A 
ATOM     32  C   UNL     1       1.179   1.659   5.508  0.00  0.00    +0.001 A 
ATOM     33  C   UNL     1       0.584   2.897   5.703  0.00  0.00    +0.002 A 
ATOM     34  C   UNL     1       0.246   3.690   4.628  0.00  0.00    +0.026 A 
ENDBRANCH  24  25
ENDBRANCH   4  23
TORSDOF 5
