REMARK  Name = ZINC17960487
REMARK  7 active torsions:
REMARK  status: ('A' for Active; 'I' for Inactive)
REMARK    1  A    between atoms: C_1  and  C_2
REMARK    2  A    between atoms: C_4  and  C_27
REMARK    3  A    between atoms: C_5  and  N_9
REMARK    4  A    between atoms: C_6  and  C_8
REMARK    5  A    between atoms: C_10  and  C_12
REMARK    6  A    between atoms: C_12  and  N_13
REMARK    7  A    between atoms: C_14  and  C_16
REMARK                            x       y       z     vdW  Elec       q    Type
REMARK                         _______ _______ _______ _____ _____    ______ ____
ROOT
ATOM      1  N   UNL     1      -1.342   2.951   1.621  0.00  0.00    -0.302 N 
ATOM      2  C   UNL     1      -2.385   3.789   1.788  0.00  0.00    +0.251 C 
ATOM      3  O   UNL     1      -3.411   3.618   1.157  0.00  0.00    -0.270 OA
ATOM      4  H   UNL     1      -0.524   3.088   2.123  0.00  0.00    +0.150 HD
ENDROOT
BRANCH   2   5
ATOM      5  C   UNL     1      -2.282   4.907   2.731  0.00  0.00    +0.074 A 
ATOM      6  C   UNL     1      -3.217   5.868   3.048  0.00  0.00    +0.024 A 
ATOM      7  C   UNL     1      -2.879   6.833   4.000  0.00  0.00    -0.036 A 
ATOM      8  C   UNL     1      -1.629   6.787   4.502  0.00  0.00    -0.006 A 
ATOM      9  S   UNL     1      -0.917   5.379   3.775  0.00  0.00    -0.088 S 
ATOM     10  C   UNL     1      -0.860   7.702   5.418  0.00  0.00    +0.043 C 
ATOM     11  C   UNL     1      -1.677   8.926   5.836  0.00  0.00    +0.005 C 
ATOM     12  C   UNL     1      -2.645   8.572   6.953  0.00  0.00    +0.000 C 
ATOM     13  C   UNL     1      -3.250   7.192   6.789  0.00  0.00    +0.000 C 
ATOM     14  C   UNL     1      -4.452   7.338   5.850  0.00  0.00    +0.005 C 
ATOM     15  C   UNL     1      -3.955   7.797   4.479  0.00  0.00    +0.036 C 
ENDBRANCH   2   5
BRANCH   1  16
ATOM     16  C   UNL     1      -1.445   1.834   0.679  0.00  0.00    +0.200 C 
BRANCH  16  18
ATOM     17  N   UNL     1      -0.017  -0.022  -0.117  0.00  0.00    -0.284 N 
ATOM     18  C   UNL     1      -0.154   1.056   0.679  0.00  0.00    +0.234 C 
ATOM     19  O   UNL     1       0.763   1.405   1.392  0.00  0.00    -0.274 OA
ATOM     20  H   UNL     1      -0.768  -0.332  -0.647  0.00  0.00    +0.155 HD
BRANCH  17  25
ATOM     21  C   UNL     1       4.950  -2.753  -0.367  0.00  0.00    +0.044 C 
ATOM     22  C   UNL     1       3.630  -2.027  -0.300  0.00  0.00    -0.050 A 
ATOM     23  C   UNL     1       2.469  -2.731  -0.040  0.00  0.00    +0.008 A 
ATOM     24  C   UNL     1       1.258  -2.069   0.021  0.00  0.00    -0.029 A 
ATOM     25  C   UNL     1       1.208  -0.696  -0.178  0.00  0.00    +0.039 A 
ATOM     26  C   UNL     1       2.376   0.007  -0.444  0.00  0.00    -0.029 A 
ATOM     27  C   UNL     1       3.584  -0.660  -0.499  0.00  0.00    +0.008 A 
ATOM     28  C   UNL     1       2.326   1.497  -0.666  0.00  0.00    +0.045 C 
ATOM     29  C   UNL     1      -0.008  -2.837   0.305  0.00  0.00    +0.045 C 
ENDBRANCH  17  25
ENDBRANCH  16  18
ENDBRANCH   1  16
TORSDOF 4
