REMARK  Name = ZINC01145176
REMARK  6 active torsions:
REMARK  status: ('A' for Active; 'I' for Inactive)
REMARK    1  A    between atoms: C_5  and  C_7
REMARK    2  A    between atoms: C_7  and  O_8
REMARK    3  A    between atoms: O_8  and  C_9
REMARK    4  A    between atoms: C_12  and  C_15
REMARK    5  A    between atoms: C_17  and  C_28
REMARK    6  A    between atoms: C_18  and  N_27
REMARK                            x       y       z     vdW  Elec       q    Type
REMARK                         _______ _______ _______ _____ _____    ______ ____
ROOT
ATOM      1  C   UNL     1      -1.019   9.623   0.066  0.00  0.00    +0.101 C 
ATOM      2  C   UNL     1      -0.401  10.226  -1.165  0.00  0.00    +0.098 C 
ATOM      3  C   UNL     1       0.795  10.859  -1.092  0.00  0.00    +0.198 C 
ATOM      4  O   UNL     1       1.461  10.962   0.069  0.00  0.00    -0.445 OA
ATOM      5  C   UNL     1       0.798  10.845   1.234  0.00  0.00    +0.115 C 
ATOM      6  C   UNL     1      -0.388  10.213   1.304  0.00  0.00    +0.046 C 
ATOM      7  C   UNL     1      -1.074  10.078   2.527  0.00  0.00    +0.163 C 
ATOM      8  O   UNL     1      -2.148   9.511   2.548  0.00  0.00    -0.292 OA
ATOM      9  C   UNL     1      -0.502  10.623   3.807  0.00  0.00    +0.080 C 
ATOM     10  C   UNL     1       1.027  10.635   3.700  0.00  0.00    +0.016 C 
ATOM     11  C   UNL     1       1.421  11.453   2.469  0.00  0.00    +0.075 C 
ENDROOT
BRANCH   1  15
ATOM     12  C   UNL     1      -0.401   5.395   0.036  0.00  0.00    +0.121 A 
ATOM     13  C   UNL     1       0.687   6.256   0.036  0.00  0.00    +0.046 A 
ATOM     14  C   UNL     1       0.484   7.623   0.040  0.00  0.00    +0.008 A 
ATOM     15  C   UNL     1      -0.801   8.132   0.056  0.00  0.00    -0.034 A 
ATOM     16  C   UNL     1      -1.886   7.276   0.061  0.00  0.00    +0.008 A 
ATOM     17  C   UNL     1      -1.689   5.909   0.052  0.00  0.00    +0.046 A 
BRANCH  12  18
ATOM     18  O   UNL     1      -0.204   4.050   0.027  0.00  0.00    -0.487 OA
BRANCH  18  19
ATOM     19  C   UNL     1       1.150   3.593   0.011  0.00  0.00    +0.267 C 
BRANCH  19  24
ATOM     20  C   UNL     1       0.002  -0.004   0.002  0.00  0.00    +0.001 A 
ATOM     21  C   UNL     1       1.208  -0.680  -0.013  0.00  0.00    +0.003 A 
ATOM     22  C   UNL     1       2.396   0.025  -0.021  0.00  0.00    +0.039 A 
ATOM     23  C   UNL     1       2.379   1.410  -0.013  0.00  0.00    +0.130 A 
ATOM     24  C   UNL     1       1.171   2.086   0.002  0.00  0.00    +0.025 A 
ATOM     25  C   UNL     1      -0.017   1.378   0.010  0.00  0.00    +0.010 A 
ATOM     26  F   UNL     1       3.540   2.101  -0.020  0.00  0.00    -0.205 F 
ENDBRANCH  19  24
ENDBRANCH  18  19
ENDBRANCH  12  18
ENDBRANCH   1  15
BRANCH   3  27
ATOM     27  N   UNL     1       1.336  11.406  -2.229  0.00  0.00    -0.328 N 
ATOM     28  H   UNL     1       0.864  11.337  -3.073  0.00  0.00    +0.145 HD
ATOM     29  H   UNL     1       2.192  11.861  -2.188  0.00  0.00    +0.145 HD
ENDBRANCH   3  27
BRANCH   2  30
ATOM     30  C   UNL     1      -1.081  10.132  -2.421  0.00  0.00    +0.101 C 
ATOM     31  N   UNL     1      -1.621  10.056  -3.418  0.00  0.00    -0.191 NA
ENDBRANCH   2  30
TORSDOF 6
