REMARK  Name = ZINC35585998
REMARK  6 active torsions:
REMARK  status: ('A' for Active; 'I' for Inactive)
REMARK    1  A    between atoms: C_1  and  C_2
REMARK    2  A    between atoms: C_2  and  C_3
REMARK    3  A    between atoms: C_3  and  N_4
REMARK    4  A    between atoms: N_4  and  C_5
REMARK    5  A    between atoms: C_5  and  C_7
REMARK    6  A    between atoms: C_5  and  C_15
REMARK                            x       y       z     vdW  Elec       q    Type
REMARK                         _______ _______ _______ _____ _____    ______ ____
ROOT
ATOM      1  C   UNL     1       1.426  -2.440  -2.474  0.00  0.00    -0.008 C 
ENDROOT
BRANCH   1   2
ATOM      2  C   UNL     1       1.555  -3.941  -2.422  0.00  0.00    -0.056 A 
ATOM      3  C   UNL     1       0.506  -4.709  -1.951  0.00  0.00    +0.004 A 
ATOM      4  C   UNL     1       0.624  -6.085  -1.903  0.00  0.00    +0.021 A 
ATOM      5  C   UNL     1       1.790  -6.695  -2.328  0.00  0.00    +0.059 A 
ATOM      6  C   UNL     1       2.840  -5.926  -2.800  0.00  0.00    +0.059 A 
ATOM      7  C   UNL     1       2.719  -4.549  -2.852  0.00  0.00    +0.023 A 
ATOM      8 CL   UNL     1       4.305  -6.690  -3.333  0.00  0.00    -0.082 Cl
ATOM      9 CL   UNL     1       1.938  -8.424  -2.267  0.00  0.00    -0.082 Cl
ENDBRANCH   1   2
BRANCH   1  10
ATOM     10  C   UNL     1       0.630  -2.045  -3.691  0.00  0.00    -0.035 A 
ATOM     11  C   UNL     1      -0.709  -1.721  -3.580  0.00  0.00    +0.026 A 
ATOM     12  C   UNL     1      -1.395  -1.370  -4.696  0.00  0.00    +0.056 A 
ATOM     13  S   UNL     1      -0.138  -1.493  -5.957  0.00  0.00    -0.074 S 
ATOM     14  C   UNL     1       1.219  -1.998  -4.912  0.00  0.00    +0.058 A 
ATOM     15 BR   UNL     1       3.011  -2.371  -5.385  0.00  0.00    -0.042 Br
ATOM     16 BR   UNL     1      -3.213  -0.880  -4.871  0.00  0.00    -0.043 Br
ENDBRANCH   1  10
BRANCH   1  17
ATOM     17  N   UNL     1       0.738  -1.966  -1.265  0.00  0.00    +0.386 N 
ATOM     18  H   UNL     1       1.226  -2.301  -0.447  0.00  0.00    -0.085 HD
ATOM     19  H   UNL     1      -0.208  -2.316  -1.258  0.00  0.00    -0.085 HD
BRANCH  17  20
ATOM     20  C   UNL     1       0.718  -0.497  -1.257  0.00  0.00    -0.082 C 
BRANCH  20  22
ATOM     21  C   UNL     1      -0.019   1.526   0.010  0.00  0.00    +0.002 C 
ATOM     22  C   UNL     1       0.002  -0.004   0.002  0.00  0.00    -0.022 C 
ENDBRANCH  20  22
ENDBRANCH  17  20
ENDBRANCH   1  17
TORSDOF 5
