REMARK  Name = ZINC19757726
REMARK  6 active torsions:
REMARK  status: ('A' for Active; 'I' for Inactive)
REMARK    1  A    between atoms: C_1  and  C_2
REMARK    2  A    between atoms: C_2  and  C_3
REMARK    3  A    between atoms: N_6  and  C_15
REMARK    4  A    between atoms: C_10  and  N_14
REMARK    5  A    between atoms: C_15  and  C_16
REMARK    6  A    between atoms: C_21  and  C_24
REMARK                            x       y       z     vdW  Elec       q    Type
REMARK                         _______ _______ _______ _____ _____    ______ ____
ROOT
ATOM      1  C   UNL     1       0.718  -0.497  -1.257  0.00  0.00    +0.190 C 
ATOM      2  C   UNL     1       0.845  -2.027  -1.210  0.00  0.00    +0.150 C 
ATOM      3  N   UNL     1       1.495  -2.457  -2.460  0.00  0.00    -0.315 N 
ATOM      4  C   UNL     1       1.086  -1.839  -3.656  0.00  0.00    +0.073 A 
ATOM      5  C   UNL     1       1.442  -2.388  -4.878  0.00  0.00    +0.028 A 
ATOM      6  C   UNL     1       1.042  -1.778  -6.052  0.00  0.00    +0.025 A 
ATOM      7  C   UNL     1       0.285  -0.615  -6.007  0.00  0.00    +0.028 A 
ATOM      8  C   UNL     1      -0.074  -0.064  -4.785  0.00  0.00    +0.070 A 
ATOM      9  C   UNL     1       0.324  -0.675  -3.606  0.00  0.00    +0.144 A 
ATOM     10  O   UNL     1      -0.037  -0.130  -2.413  0.00  0.00    -0.485 OA
ENDROOT
BRANCH   7  11
ATOM     11  N   UNL     1      -0.117   0.003  -7.197  0.00  0.00    -0.358 N 
ATOM     12  H   UNL     1       0.133  -0.381  -8.052  0.00  0.00    +0.142 HD
ATOM     13  H   UNL     1      -0.646   0.816  -7.167  0.00  0.00    +0.142 HD
ENDBRANCH   7  11
BRANCH   1  15
ATOM     14  C   UNL     1      -0.019   1.526   0.010  0.00  0.00    +0.007 C 
ATOM     15  C   UNL     1       0.002  -0.004   0.002  0.00  0.00    +0.043 C 
ENDBRANCH   1  15
BRANCH   3  16
ATOM     16  C   UNL     1       2.531  -3.493  -2.458  0.00  0.00    +0.201 C 
BRANCH  16  17
ATOM     17  C   UNL     1       1.890  -4.846  -2.632  0.00  0.00    +0.233 C 
ATOM     18  O   UNL     1       0.686  -4.936  -2.746  0.00  0.00    -0.274 OA
ATOM     19  N   UNL     1       2.655  -5.955  -2.660  0.00  0.00    -0.300 N 
ATOM     20  C   UNL     1       4.114  -5.863  -2.517  0.00  0.00    +0.108 C 
ATOM     21  C   UNL     1       4.772  -6.584  -3.697  0.00  0.00    +0.022 C 
ATOM     22  C   UNL     1       4.238  -8.016  -3.777  0.00  0.00    -0.011 C 
ATOM     23  C   UNL     1       2.726  -7.986  -4.011  0.00  0.00    +0.022 C 
ATOM     24  C   UNL     1       2.044  -7.281  -2.829  0.00  0.00    +0.108 C 
ATOM     25  C   UNL     1       4.918  -8.750  -4.934  0.00  0.00    +0.007 C 
ENDBRANCH  16  17
ENDBRANCH   3  16
TORSDOF 4
