REMARK  Name = ZINC64701873
REMARK  8 active torsions:
REMARK  status: ('A' for Active; 'I' for Inactive)
REMARK    1  A    between atoms: C_7  and  C_10
REMARK    2  A    between atoms: C_10  and  C_11
REMARK    3  A    between atoms: C_11  and  C_13
REMARK    4  A    between atoms: C_11  and  N_28
REMARK    5  A    between atoms: N_15  and  C_16
REMARK    6  A    between atoms: C_16  and  C_17
REMARK    7  A    between atoms: C_17  and  C_18
REMARK    8  A    between atoms: C_29  and  C_31
REMARK                            x       y       z     vdW  Elec       q    Type
REMARK                         _______ _______ _______ _____ _____    ______ ____
ROOT
ATOM      1  C   UNL     1       0.457  -3.653  -1.462  0.00  0.00    +0.163 C 
ENDROOT
BRANCH   1   2
ATOM      2  C   UNL     1      -0.385  -4.904  -1.452  0.00  0.00    +0.234 C 
ATOM      3  O   UNL     1      -1.459  -4.916  -2.016  0.00  0.00    -0.274 OA
ATOM      4  N   UNL     1       0.057  -6.008  -0.819  0.00  0.00    -0.313 N 
ATOM      5  H   UNL     1       0.915  -5.998  -0.368  0.00  0.00    +0.149 HD
BRANCH   4   6
ATOM      6  C   UNL     1      -0.761  -7.224  -0.810  0.00  0.00    +0.109 C 
BRANCH   6   7
ATOM      7  C   UNL     1      -0.036  -8.321  -0.028  0.00  0.00    +0.054 C 
BRANCH   7   8
ATOM      8  C   UNL     1      -0.877  -9.571  -0.019  0.00  0.00    -0.042 A 
ATOM      9  C   UNL     1      -1.799  -9.775   0.991  0.00  0.00    +0.007 A 
ATOM     10  C   UNL     1      -2.572 -10.921   1.004  0.00  0.00    +0.050 A 
ATOM     11  C   UNL     1      -2.424 -11.870   0.003  0.00  0.00    +0.162 A 
ATOM     12  C   UNL     1      -1.498 -11.664  -1.014  0.00  0.00    +0.162 A 
ATOM     13  C   UNL     1      -0.729 -10.509  -1.023  0.00  0.00    +0.053 A 
ATOM     14  O   UNL     1      -1.343 -12.578  -2.010  0.00  0.00    -0.485 OA
ATOM     15  C   UNL     1      -1.867 -13.888  -1.768  0.00  0.00    +0.270 C 
ATOM     16  C   UNL     1      -3.280 -13.741  -1.188  0.00  0.00    +0.270 C 
ATOM     17  O   UNL     1      -3.188 -12.995   0.031  0.00  0.00    -0.485 OA
ENDBRANCH   7   8
ENDBRANCH   6   7
ENDBRANCH   4   6
ENDBRANCH   1   2
BRANCH   1  18
ATOM     18  N   UNL     1      -0.238  -2.603  -2.210  0.00  0.00    -0.300 N 
ATOM     19  C   UNL     1       0.465  -1.608  -2.785  0.00  0.00    +0.245 C 
ATOM     20  O   UNL     1       1.677  -1.582  -2.683  0.00  0.00    -0.270 OA
ATOM     21  H   UNL     1      -1.204  -2.624  -2.292  0.00  0.00    +0.150 HD
BRANCH  19  22
ATOM     22  C   UNL     1      -0.235  -0.548  -3.540  0.00  0.00    +0.037 A 
ATOM     23  C   UNL     1      -1.627  -0.573  -3.654  0.00  0.00    +0.016 A 
ATOM     24  C   UNL     1      -2.275   0.418  -4.359  0.00  0.00    +0.039 A 
ATOM     25  C   UNL     1      -1.548   1.438  -4.955  0.00  0.00    +0.123 A 
ATOM     26  C   UNL     1      -0.167   1.466  -4.845  0.00  0.00    +0.039 A 
ATOM     27  C   UNL     1       0.491   0.484  -4.137  0.00  0.00    +0.016 A 
ATOM     28  F   UNL     1      -2.189   2.406  -5.646  0.00  0.00    -0.205 F 
ENDBRANCH  19  22
ENDBRANCH   1  18
BRANCH   1  29
ATOM     29  C   UNL     1       0.691  -3.186  -0.024  0.00  0.00    +0.065 C 
BRANCH  29  36
ATOM     30  C   UNL     1      -0.016   1.348   0.009  0.00  0.00    +0.001 A 
ATOM     31  C   UNL     1       1.166   2.101   0.002  0.00  0.00    +0.002 A 
ATOM     32  C   UNL     1       2.391   1.535  -0.013  0.00  0.00    +0.026 A 
ATOM     33  C   UNL     1       2.529   0.120  -0.022  0.00  0.00    +0.043 A 
ATOM     34  N   UNL     1       3.587  -0.654  -0.037  0.00  0.00    -0.380 N 
ATOM     35  C   UNL     1       3.143  -2.053  -0.041  0.00  0.00    +0.144 C 
ATOM     36  C   UNL     1       1.631  -2.008  -0.025  0.00  0.00    -0.039 C 
ATOM     37  C   UNL     1       1.295  -0.698  -0.014  0.00  0.00    -0.001 A 
ATOM     38  C   UNL     1       0.002  -0.004   0.002  0.00  0.00    +0.010 A 
ATOM     39  H   UNL     1       4.509  -0.353  -0.045  0.00  0.00    +0.160 HD
ENDBRANCH  29  36
ENDBRANCH   1  29
TORSDOF 8
