REMARK  Name = ZINC63547549
REMARK  7 active torsions:
REMARK  status: ('A' for Active; 'I' for Inactive)
REMARK    1  A    between atoms: C_1  and  C_2
REMARK    2  A    between atoms: C_4  and  C_24
REMARK    3  A    between atoms: N_7  and  C_8
REMARK    4  A    between atoms: C_8  and  C_9
REMARK    5  A    between atoms: N_11  and  C_12
REMARK    6  A    between atoms: C_12  and  C_13
REMARK    7  A    between atoms: C_13  and  C_14
REMARK                            x       y       z     vdW  Elec       q    Type
REMARK                         _______ _______ _______ _____ _____    ______ ____
ROOT
ATOM      1  C   UNL     1      -1.389  -0.096   2.990  0.00  0.00    +0.232 C 
ATOM      2  O   UNL     1      -2.314  -0.392   2.263  0.00  0.00    -0.274 OA
ATOM      3  N   UNL     1      -1.630   0.378   4.228  0.00  0.00    -0.314 N 
ATOM      4  H   UNL     1      -0.890   0.615   4.809  0.00  0.00    +0.149 HD
ENDROOT
BRANCH   1   5
ATOM      5  C   UNL     1       0.030  -0.258   2.507  0.00  0.00    +0.219 C 
BRANCH   5  11
ATOM      6  C   UNL     1      -0.018   1.503   0.010  0.00  0.00    +0.062 C 
ATOM      7  C   UNL     1       0.002  -0.004   0.002  0.00  0.00    +0.017 C 
ATOM      8  C   UNL     1       0.007  -0.737  -1.093  0.00  0.00    +0.021 C 
ATOM      9  C   UNL     1       0.029  -2.184  -0.650  0.00  0.00    +0.201 C 
ATOM     10  N   UNL     1       0.035  -2.114   0.825  0.00  0.00    -0.225 NA
ATOM     11  N   UNL     1       0.024  -0.785   1.141  0.00  0.00    -0.262 N 
ATOM     12  H   UNL     1      -0.767  -2.588   1.213  0.00  0.00    +0.145 HD
BRANCH   9  13
ATOM     13  C   UNL     1      -1.218  -2.916  -1.149  0.00  0.00    +0.410 C 
ATOM     14  F   UNL     1      -1.242  -2.897  -2.547  0.00  0.00    -0.169 F 
ATOM     15  F   UNL     1      -1.193  -4.241  -0.700  0.00  0.00    -0.169 F 
ATOM     16  F   UNL     1      -2.361  -2.278  -0.654  0.00  0.00    -0.169 F 
ENDBRANCH   9  13
ENDBRANCH   5  11
ENDBRANCH   1   5
BRANCH   3  17
ATOM     17  C   UNL     1      -3.009   0.535   4.697  0.00  0.00    +0.108 C 
BRANCH  17  18
ATOM     18  C   UNL     1      -3.002   1.086   6.125  0.00  0.00    +0.052 C 
BRANCH  18  19
ATOM     19  C   UNL     1      -4.421   1.248   6.607  0.00  0.00    -0.040 C 
ATOM     20  C   UNL     1      -5.136   0.365   7.342  0.00  0.00    +0.000 A 
ATOM     21  C   UNL     1      -4.818  -0.959   7.890  0.00  0.00    +0.030 A 
ATOM     22  C   UNL     1      -5.762  -1.618   8.602  0.00  0.00    +0.042 A 
ATOM     23  C   UNL     1      -7.033  -1.068   8.827  0.00  0.00    +0.022 A 
ATOM     24  C   UNL     1      -7.398   0.142   8.355  0.00  0.00    +0.027 A 
ATOM     25  C   UNL     1      -6.484   0.923   7.594  0.00  0.00    +0.043 A 
ATOM     26  N   UNL     1      -6.598   2.104   7.037  0.00  0.00    -0.380 N 
ATOM     27  C   UNL     1      -5.331   2.432   6.373  0.00  0.00    +0.144 C 
ATOM     28 CL   UNL     1      -5.391  -3.184   9.252  0.00  0.00    -0.084 Cl
ATOM     29  H   UNL     1      -7.386   2.668   7.063  0.00  0.00    +0.160 HD
ENDBRANCH  18  19
ENDBRANCH  17  18
ENDBRANCH   3  17
TORSDOF 6
