REMARK  Name = ZINC39979313
REMARK  6 active torsions:
REMARK  status: ('A' for Active; 'I' for Inactive)
REMARK    1  A    between atoms: C_1  and  C_2
REMARK    2  A    between atoms: C_2  and  C_3
REMARK    3  A    between atoms: C_6  and  N_9
REMARK    4  A    between atoms: N_9  and  C_10
REMARK    5  A    between atoms: N_13  and  S_14
REMARK    6  A    between atoms: S_14  and  C_17
REMARK                            x       y       z     vdW  Elec       q    Type
REMARK                         _______ _______ _______ _____ _____    ______ ____
ROOT
ATOM      1  C   UNL     1       2.027  -2.045   5.863  0.00  0.00    +0.235 C 
ATOM      2  C   UNL     1       2.443  -3.369   6.463  0.00  0.00    +0.170 C 
ATOM      3  N   UNL     1       2.275  -4.476   5.802  0.00  0.00    -0.111 NA
ATOM      4  N   UNL     1       2.991  -3.384   7.689  0.00  0.00    -0.338 N 
ATOM      5  C   UNL     1       3.173  -2.277   8.378  0.00  0.00    +0.064 A 
ATOM      6  C   UNL     1       3.755  -2.331   9.670  0.00  0.00    +0.028 A 
ATOM      7  C   UNL     1       3.943  -1.198  10.382  0.00  0.00    +0.002 A 
ATOM      8  C   UNL     1       3.584   0.071   9.899  0.00  0.00    +0.002 A 
ATOM      9  C   UNL     1       3.023   0.235   8.681  0.00  0.00    +0.027 A 
ATOM     10  C   UNL     1       2.784  -0.949   7.843  0.00  0.00    +0.061 A 
ATOM     11  N   UNL     1       2.245  -0.830   6.662  0.00  0.00    -0.359 N 
ATOM     12  H   UNL     1       1.995   0.042   6.318  0.00  0.00    +0.162 HD
ATOM     13  H   UNL     1       3.259  -4.232   8.076  0.00  0.00    +0.167 HD
ENDROOT
BRANCH   3  14
ATOM     14  S   UNL     1       2.736  -5.919   6.471  0.00  0.00    +0.107 S 
ATOM     15  O   UNL     1       4.152  -5.880   6.584  0.00  0.00    -0.146 OA
ATOM     16  O   UNL     1       1.888  -6.136   7.591  0.00  0.00    -0.146 OA
BRANCH  14  17
ATOM     17  C   UNL     1       2.358  -7.180   5.301  0.00  0.00    +0.150 A 
ATOM     18  C   UNL     1       3.134  -7.687   4.311  0.00  0.00    +0.037 A 
ATOM     19  C   UNL     1       2.623  -8.686   3.504  0.00  0.00    +0.010 A 
ATOM     20  C   UNL     1       1.362  -9.130   3.725  0.00  0.00    +0.047 A 
ATOM     21  S   UNL     1       0.857  -8.128   5.115  0.00  0.00    -0.076 S 
ENDBRANCH  14  17
ENDBRANCH   3  14
BRANCH   1  22
ATOM     22  N   UNL     1       2.745  -1.883   4.596  0.00  0.00    -0.318 N 
ATOM     23  H   UNL     1       3.708  -1.996   4.566  0.00  0.00    +0.148 HD
BRANCH  22  27
ATOM     24  C   UNL     1       0.653  -0.934   1.123  0.00  0.00    -0.048 A 
ATOM     25  C   UNL     1       0.005  -0.918   2.345  0.00  0.00    +0.005 A 
ATOM     26  C   UNL     1       0.696  -1.232   3.499  0.00  0.00    +0.023 A 
ATOM     27  C   UNL     1       2.043  -1.565   3.431  0.00  0.00    +0.029 A 
ATOM     28  C   UNL     1       2.691  -1.580   2.202  0.00  0.00    +0.023 A 
ATOM     29  C   UNL     1       1.992  -1.270   1.052  0.00  0.00    +0.005 A 
BRANCH  24  31
ATOM     30  C   UNL     1      -0.718  -1.861  -0.723  0.00  0.00    +0.009 C 
ATOM     31  C   UNL     1      -0.104  -0.590  -0.134  0.00  0.00    +0.032 C 
ENDBRANCH  24  31
ENDBRANCH  22  27
ENDBRANCH   1  22
TORSDOF 5
