REMARK  Name = ZINC39243272
REMARK  9 active torsions:
REMARK  status: ('A' for Active; 'I' for Inactive)
REMARK    1  A    between atoms: C_1  and  C_2
REMARK    2  A    between atoms: C_2  and  C_3
REMARK    3  A    between atoms: C_3  and  C_4
REMARK    4  A    between atoms: C_6  and  C_18
REMARK    5  A    between atoms: C_8  and  C_16
REMARK    6  A    between atoms: C_9  and  N_15
REMARK    7  A    between atoms: C_21  and  O_24
REMARK    8  A    between atoms: O_24  and  C_25
REMARK    9  A    between atoms: C_25  and  C_26
REMARK                            x       y       z     vdW  Elec       q    Type
REMARK                         _______ _______ _______ _____ _____    ______ ____
ROOT
ATOM      1  C   UNL     1       0.739  -2.004  -1.265  0.00  0.00    +0.069 C 
ATOM      2  C   UNL     1      -0.135  -2.762  -1.882  0.00  0.00    +0.030 C 
ATOM      3  C   UNL     1      -1.423  -2.480  -2.608  0.00  0.00    +0.098 C 
ATOM      4  C   UNL     1      -2.385  -3.567  -2.166  0.00  0.00    +0.097 C 
ATOM      5  C   UNL     1      -1.974  -4.625  -1.436  0.00  0.00    +0.195 C 
ATOM      6  O   UNL     1      -0.727  -4.855  -0.986  0.00  0.00    -0.448 OA
ATOM      7  C   UNL     1       0.349  -4.195  -1.657  0.00  0.00    +0.343 C 
ATOM      8  N   UNL     1       1.507  -3.990  -0.780  0.00  0.00    -0.138 NA
ATOM      9  N   UNL     1       1.668  -2.771  -0.639  0.00  0.00    -0.155 NA
ENDROOT
BRANCH   3  10
ATOM     10  C   UNL     1      -1.206  -2.546  -4.098  0.00  0.00    -0.035 A 
ATOM     11  C   UNL     1      -0.762  -3.719  -4.680  0.00  0.00    +0.008 A 
ATOM     12  C   UNL     1      -0.563  -3.781  -6.045  0.00  0.00    +0.046 A 
ATOM     13  C   UNL     1      -0.808  -2.666  -6.833  0.00  0.00    +0.121 A 
ATOM     14  C   UNL     1      -1.254  -1.490  -6.246  0.00  0.00    +0.046 A 
ATOM     15  C   UNL     1      -1.457  -1.434  -4.881  0.00  0.00    +0.008 A 
BRANCH  13  16
ATOM     16  O   UNL     1      -0.612  -2.724  -8.176  0.00  0.00    -0.487 OA
BRANCH  16  17
ATOM     17  C   UNL     1      -0.885  -1.538  -8.924  0.00  0.00    +0.264 C 
BRANCH  17  18
ATOM     18  C   UNL     1      -0.613  -1.791 -10.384  0.00  0.00    -0.009 A 
ATOM     19  C   UNL     1       0.647  -1.557 -10.903  0.00  0.00    +0.007 A 
ATOM     20  C   UNL     1       0.898  -1.789 -12.242  0.00  0.00    +0.002 A 
ATOM     21  C   UNL     1      -0.111  -2.254 -13.064  0.00  0.00    +0.020 A 
ATOM     22  C   UNL     1      -1.372  -2.488 -12.546  0.00  0.00    +0.041 A 
ATOM     23  C   UNL     1      -1.621  -2.262 -11.204  0.00  0.00    +0.027 A 
ATOM     24 CL   UNL     1      -2.640  -3.073 -13.578  0.00  0.00    -0.084 Cl
ENDBRANCH  17  18
ENDBRANCH  16  17
ENDBRANCH  13  16
ENDBRANCH   3  10
BRANCH   5  25
ATOM     25  N   UNL     1      -2.925  -5.561  -1.119  0.00  0.00    -0.329 N 
ATOM     26  H   UNL     1      -3.840  -5.444  -1.419  0.00  0.00    +0.145 HD
ATOM     27  H   UNL     1      -2.683  -6.341  -0.596  0.00  0.00    +0.145 HD
ENDBRANCH   5  25
BRANCH   4  28
ATOM     28  C   UNL     1      -3.765  -3.468  -2.534  0.00  0.00    +0.101 C 
ATOM     29  N   UNL     1      -4.861  -3.389  -2.826  0.00  0.00    -0.191 NA
ENDBRANCH   4  28
BRANCH   1  30
ATOM     30  C   UNL     1       0.718  -0.497  -1.257  0.00  0.00    +0.057 C 
BRANCH  30  32
ATOM     31  C   UNL     1      -0.019   1.526   0.010  0.00  0.00    +0.004 C 
ATOM     32  C   UNL     1       0.002  -0.004   0.002  0.00  0.00    +0.003 C 
ENDBRANCH  30  32
ENDBRANCH   1  30
TORSDOF 8
