REMARK  Name = ZINC33960014
REMARK  7 active torsions:
REMARK  status: ('A' for Active; 'I' for Inactive)
REMARK    1  A    between atoms: C_1  and  O_2
REMARK    2  A    between atoms: O_2  and  C_3
REMARK    3  A    between atoms: C_6  and  C_9
REMARK    4  A    between atoms: N_10  and  N_11
REMARK    5  A    between atoms: C_14  and  C_17
REMARK    6  A    between atoms: C_21  and  S_23
REMARK    7  A    between atoms: S_23  and  N_26
REMARK                            x       y       z     vdW  Elec       q    Type
REMARK                         _______ _______ _______ _____ _____    ______ ____
ROOT
ATOM      1  N   UNL     1       3.276  -4.467   5.408  0.00  0.00    -0.215 N 
ATOM      2  C   UNL     1       3.337  -5.849   5.460  0.00  0.00    +0.178 A 
ATOM      3  N   UNL     1       3.885  -6.628   6.375  0.00  0.00    -0.224 NA
ATOM      4  C   UNL     1       3.849  -7.948   6.265  0.00  0.00    +0.080 A 
ATOM      5  C   UNL     1       3.233  -8.514   5.184  0.00  0.00    +0.077 A 
ATOM      6  S   UNL     1       2.686  -7.053   4.310  0.00  0.00    -0.059 S 
ATOM      7  H   UNL     1       3.679  -3.937   6.113  0.00  0.00    +0.176 HD
ENDROOT
BRANCH   4   8
ATOM      8  C   UNL     1       4.473  -8.803   7.304  0.00  0.00    +0.003 A 
ATOM      9  C   UNL     1       4.439 -10.191   7.181  0.00  0.00    +0.010 A 
ATOM     10  C   UNL     1       5.020 -10.981   8.151  0.00  0.00    +0.003 A 
ATOM     11  C   UNL     1       5.636 -10.398   9.244  0.00  0.00    +0.028 A 
ATOM     12  C   UNL     1       5.673  -9.021   9.371  0.00  0.00    +0.106 A 
ATOM     13  C   UNL     1       5.100  -8.221   8.404  0.00  0.00    +0.038 A 
BRANCH  12  14
ATOM     14  S   UNL     1       6.460  -8.288  10.767  0.00  0.00    +0.061 S 
ATOM     15  O   UNL     1       5.883  -7.000  10.928  0.00  0.00    -0.153 OA
ATOM     16  O   UNL     1       6.447  -9.264  11.800  0.00  0.00    -0.153 OA
BRANCH  14  17
ATOM     17  N   UNL     1       8.048  -8.048  10.364  0.00  0.00    -0.177 NA
ATOM     18  C   UNL     1       9.051  -9.091  10.618  0.00  0.00    +0.109 C 
ATOM     19  C   UNL     1       9.799  -9.385   9.314  0.00  0.00    +0.017 C 
ATOM     20  C   UNL     1      10.375  -8.082   8.755  0.00  0.00    +0.003 C 
ATOM     21  C   UNL     1       9.235  -7.108   8.450  0.00  0.00    +0.017 C 
ATOM     22  C   UNL     1       8.480  -6.790   9.739  0.00  0.00    +0.109 C 
ENDBRANCH  14  17
ENDBRANCH  12  14
ENDBRANCH   4   8
BRANCH   1  24
ATOM     23  C   UNL     1       2.575  -2.537   4.288  0.00  0.00    +0.138 C 
ATOM     24  N   UNL     1       2.632  -3.833   4.337  0.00  0.00    -0.188 NA
BRANCH  23  28
ATOM     25  C   UNL     1       0.626  -0.618   1.041  0.00  0.00    +0.120 A 
ATOM     26  C   UNL     1       1.202   0.143   2.050  0.00  0.00    +0.046 A 
ATOM     27  C   UNL     1       1.836  -0.476   3.106  0.00  0.00    +0.013 A 
ATOM     28  C   UNL     1       1.898  -1.871   3.161  0.00  0.00    -0.005 A 
ATOM     29  C   UNL     1       1.317  -2.632   2.143  0.00  0.00    +0.013 A 
ATOM     30  C   UNL     1       0.680  -2.005   1.094  0.00  0.00    +0.046 A 
BRANCH  25  32
ATOM     31  C   UNL     1      -0.017   1.425   0.010  0.00  0.00    +0.277 C 
ATOM     32  O   UNL     1       0.002  -0.004   0.002  0.00  0.00    -0.495 OA
ENDBRANCH  25  32
ENDBRANCH  23  28
ENDBRANCH   1  24
TORSDOF 6
