REMARK  Name = ZINC13690840
REMARK  6 active torsions:
REMARK  status: ('A' for Active; 'I' for Inactive)
REMARK    1  A    between atoms: C_1  and  C_2
REMARK    2  A    between atoms: C_5  and  S_8
REMARK    3  A    between atoms: S_8  and  N_11
REMARK    4  A    between atoms: C_15  and  C_18
REMARK    5  A    between atoms: C_18  and  C_19
REMARK    6  A    between atoms: N_21  and  C_22
REMARK                            x       y       z     vdW  Elec       q    Type
REMARK                         _______ _______ _______ _____ _____    ______ ____
ROOT
ATOM      1  N   UNL     1       1.643  -5.002  -0.049  0.00  0.00    -0.103 NA
ATOM      2  C   UNL     1       1.954  -6.275  -0.051  0.00  0.00    +0.192 A 
ATOM      3  N   UNL     1       3.196  -6.871  -0.055  0.00  0.00    -0.336 N 
ATOM      4  H   UNL     1       4.004  -6.334  -0.058  0.00  0.00    +0.168 HD
ATOM      5  C   UNL     1       3.264  -8.233  -0.056  0.00  0.00    +0.033 A 
ATOM      6  C   UNL     1       2.147  -8.960  -0.053  0.00  0.00    +0.070 A 
ATOM      7  S   UNL     1       0.880  -7.702  -0.039  0.00  0.00    -0.057 S 
ENDROOT
BRANCH   1   8
ATOM      8  S   UNL     1       0.054  -4.537  -0.036  0.00  0.00    +0.101 S 
ATOM      9  O   UNL     1      -0.480  -4.950   1.215  0.00  0.00    -0.146 OA
ATOM     10  O   UNL     1      -0.501  -4.953  -1.276  0.00  0.00    -0.146 OA
BRANCH   8  15
ATOM     11  C   UNL     1      -0.044   1.496  -0.041  0.00  0.00    +0.044 C 
ATOM     12  C   UNL     1      -0.019  -0.011  -0.040  0.00  0.00    -0.050 A 
ATOM     13  C   UNL     1      -0.018  -0.703  -1.236  0.00  0.00    +0.005 A 
ATOM     14  C   UNL     1       0.005  -2.085  -1.235  0.00  0.00    +0.029 A 
ATOM     15  C   UNL     1       0.026  -2.775  -0.037  0.00  0.00    +0.113 A 
ATOM     16  C   UNL     1       0.025  -2.083   1.159  0.00  0.00    +0.029 A 
ATOM     17  C   UNL     1       0.007  -0.701   1.158  0.00  0.00    +0.005 A 
ENDBRANCH   8  15
ENDBRANCH   1   8
BRANCH   5  18
ATOM     18  C   UNL     1       4.606  -8.919  -0.061  0.00  0.00    +0.149 C 
BRANCH  18  19
ATOM     19  C   UNL     1       5.104  -9.037  -1.478  0.00  0.00    +0.223 C 
ATOM     20  O   UNL     1       4.436  -8.606  -2.394  0.00  0.00    -0.275 OA
ATOM     21  N   UNL     1       6.293  -9.620  -1.728  0.00  0.00    -0.285 N 
ATOM     22  H   UNL     1       6.859  -9.904  -0.992  0.00  0.00    +0.155 HD
BRANCH  21  23
ATOM     23  C   UNL     1       6.713  -9.817  -3.050  0.00  0.00    +0.034 A 
ATOM     24  C   UNL     1       6.397  -8.874  -4.027  0.00  0.00    +0.025 A 
ATOM     25  C   UNL     1       6.802  -9.052  -5.330  0.00  0.00    +0.028 A 
ATOM     26  C   UNL     1       7.534 -10.181  -5.683  0.00  0.00    +0.047 A 
ATOM     27  C   UNL     1       7.856 -11.135  -4.701  0.00  0.00    +0.001 A 
ATOM     28  C   UNL     1       7.445 -10.942  -3.380  0.00  0.00    +0.033 A 
ATOM     29  C   UNL     1       8.617 -12.182  -5.386  0.00  0.00    +0.027 A 
ATOM     30  C   UNL     1       8.708 -11.822  -6.676  0.00  0.00    +0.083 A 
ATOM     31  N   UNL     1       8.067 -10.629  -6.873  0.00  0.00    -0.361 N 
ATOM     32  H   UNL     1       7.999 -10.168  -7.724  0.00  0.00    +0.165 HD
ENDBRANCH  21  23
ENDBRANCH  18  19
ENDBRANCH   5  18
TORSDOF 5
