REMARK  Name = ZINC32074883
REMARK  7 active torsions:
REMARK  status: ('A' for Active; 'I' for Inactive)
REMARK    1  A    between atoms: C_1  and  C_2
REMARK    2  A    between atoms: C_5  and  S_16
REMARK    3  A    between atoms: N_6  and  C_7
REMARK    4  A    between atoms: C_12  and  O_13
REMARK    5  A    between atoms: O_13  and  C_14
REMARK    6  A    between atoms: S_16  and  C_17
REMARK    7  A    between atoms: C_28  and  O_29
REMARK                            x       y       z     vdW  Elec       q    Type
REMARK                         _______ _______ _______ _____ _____    ______ ____
ROOT
ATOM      1  C   UNL     1      -0.018   1.503   0.010  0.00  0.00    +0.088 C 
ATOM      2  C   UNL     1       0.002  -0.004   0.002  0.00  0.00    +0.136 A 
ATOM      3  N   UNL     1       0.008  -0.771  -1.052  0.00  0.00    -0.133 NA
ATOM      4  N   UNL     1       0.026  -2.007  -0.700  0.00  0.00    -0.122 NA
ATOM      5  C   UNL     1       0.033  -2.098   0.610  0.00  0.00    +0.197 A 
ATOM      6  N   UNL     1       0.024  -0.822   1.100  0.00  0.00    -0.271 N 
ENDROOT
BRANCH   6   7
ATOM      7  C   UNL     1       0.031  -0.431   2.449  0.00  0.00    +0.093 A 
ATOM      8  C   UNL     1      -1.165  -0.260   3.130  0.00  0.00    +0.050 A 
ATOM      9  C   UNL     1      -1.155   0.125   4.458  0.00  0.00    +0.043 A 
ATOM     10  C   UNL     1       0.046   0.340   5.110  0.00  0.00    +0.024 A 
ATOM     11  C   UNL     1       1.242   0.171   4.437  0.00  0.00    +0.049 A 
ATOM     12  C   UNL     1       1.240  -0.220   3.107  0.00  0.00    +0.144 A 
ATOM     13 CL   UNL     1      -2.653   0.339   5.309  0.00  0.00    -0.083 Cl
BRANCH  12  14
ATOM     14  O   UNL     1       2.415  -0.391   2.446  0.00  0.00    -0.493 OA
ATOM     15  C   UNL     1       3.616  -0.157   3.185  0.00  0.00    +0.277 C 
ENDBRANCH  12  14
ENDBRANCH   6   7
BRANCH   5  16
ATOM     16  S   UNL     1       0.057  -3.584   1.557  0.00  0.00    -0.073 S 
BRANCH  16  17
ATOM     17  C   UNL     1       0.071  -4.900   0.308  0.00  0.00    +0.140 C 
ATOM     18  C   UNL     1      -0.064  -6.234   1.000  0.00  0.00    +0.029 C 
ATOM     19  C   UNL     1      -0.411  -7.351   0.065  0.00  0.00    +0.039 C 
ATOM     20  C   UNL     1       0.714  -7.849  -0.786  0.00  0.00    -0.022 A 
ATOM     21  C   UNL     1       0.709  -9.215  -1.060  0.00  0.00    +0.006 A 
ATOM     22  C   UNL     1       1.684  -9.797  -1.839  0.00  0.00    +0.000 A 
ATOM     23  C   UNL     1       2.694  -9.012  -2.367  0.00  0.00    +0.002 A 
ATOM     24  C   UNL     1       2.716  -7.665  -2.105  0.00  0.00    +0.028 A 
ATOM     25  C   UNL     1       1.726  -7.056  -1.303  0.00  0.00    +0.071 A 
ATOM     26  N   UNL     1       1.886  -5.733  -1.112  0.00  0.00    -0.216 NA
ATOM     27  C   UNL     1       1.327  -4.804  -0.481  0.00  0.00    +0.201 C 
BRANCH  27  28
ATOM     28  O   UNL     1       1.926  -3.597  -0.524  0.00  0.00    -0.495 OA
ATOM     29  H   UNL     1       2.739  -3.579  -1.047  0.00  0.00    +0.293 HD
ENDBRANCH  27  28
ENDBRANCH  16  17
ENDBRANCH   5  16
TORSDOF 5
