REMARK  Name = ZINC29770409
REMARK  11 active torsions:
REMARK  status: ('A' for Active; 'I' for Inactive)
REMARK    1  A    between atoms: C_1  and  C_2
REMARK    2  A    between atoms: C_5  and  S_13
REMARK    3  A    between atoms: N_6  and  C_7
REMARK    4  A    between atoms: S_13  and  C_14
REMARK    5  A    between atoms: C_14  and  C_15
REMARK    6  A    between atoms: N_17  and  C_18
REMARK    7  A    between atoms: C_18  and  C_19
REMARK    8  A    between atoms: C_19  and  C_21
REMARK    9  A    between atoms: C_19  and  N_29
REMARK   10  A    between atoms: C_24  and  O_27
REMARK   11  A    between atoms: O_27  and  C_28
REMARK                            x       y       z     vdW  Elec       q    Type
REMARK                         _______ _______ _______ _____ _____    ______ ____
ROOT
ATOM      1  C   UNL     1      -5.053   0.036   2.539  0.00  0.00    +0.223 C 
ATOM      2  O   UNL     1      -4.539   0.321   3.600  0.00  0.00    -0.275 OA
ATOM      3  N   UNL     1      -4.371   0.218   1.391  0.00  0.00    -0.316 N 
ATOM      4  H   UNL     1      -4.837  -0.040   0.428  0.00  0.00    +0.149 HD
ENDROOT
BRANCH   1   5
ATOM      5  C   UNL     1      -6.453  -0.520   2.505  0.00  0.00    +0.173 C 
BRANCH   5   6
ATOM      6  S   UNL     1      -7.094  -0.644   4.193  0.00  0.00    -0.077 S 
BRANCH   6  11
ATOM      7  C   UNL     1     -12.031  -2.561   4.640  0.00  0.00    +0.088 C 
ATOM      8  C   UNL     1     -10.717  -2.085   4.074  0.00  0.00    +0.131 A 
ATOM      9  N   UNL     1     -10.386  -2.051   2.815  0.00  0.00    -0.134 NA
ATOM     10  N   UNL     1      -9.194  -1.590   2.684  0.00  0.00    -0.122 NA
ATOM     11  C   UNL     1      -8.695  -1.302   3.864  0.00  0.00    +0.192 A 
ATOM     12  N   UNL     1      -9.650  -1.615   4.789  0.00  0.00    -0.303 N 
BRANCH  12  13
ATOM     13  C   UNL     1      -9.553  -1.473   6.243  0.00  0.00    +0.091 C 
ATOM     14  C   UNL     1      -9.310  -0.004   6.597  0.00  0.00    +0.025 C 
ATOM     15  C   UNL     1      -9.208   0.145   8.117  0.00  0.00    +0.002 C 
ATOM     16  C   UNL     1      -8.046  -0.704   8.635  0.00  0.00    +0.000 C 
ATOM     17  C   UNL     1      -8.289  -2.173   8.282  0.00  0.00    +0.002 C 
ATOM     18  C   UNL     1      -8.390  -2.321   6.762  0.00  0.00    +0.025 C 
ENDBRANCH  12  13
ENDBRANCH   6  11
ENDBRANCH   5   6
ENDBRANCH   1   5
BRANCH   3  19
ATOM     19  C   UNL     1      -3.010   0.759   1.424  0.00  0.00    +0.093 C 
BRANCH  19  20
ATOM     20  C   UNL     1      -2.505   0.957  -0.006  0.00  0.00    -0.020 C 
BRANCH  20  21
ATOM     21  N   UNL     1      -1.169   1.567   0.026  0.00  0.00    +0.385 N 
ATOM     22  C   UNL     1      -1.194   2.850   0.740  0.00  0.00    -0.078 C 
ATOM     23  C   UNL     1       0.233   3.385   0.881  0.00  0.00    -0.019 C 
ATOM     24  C   UNL     1       0.845   3.566  -0.510  0.00  0.00    -0.004 C 
ATOM     25  C   UNL     1       0.815   2.226  -1.251  0.00  0.00    -0.019 C 
ATOM     26  C   UNL     1      -0.629   1.725  -1.330  0.00  0.00    -0.078 C 
ATOM     27  H   UNL     1      -0.500   0.890   0.577  0.00  0.00    -0.081 HD
ENDBRANCH  20  21
BRANCH  20  28
ATOM     28  C   UNL     1      -2.431  -0.377  -0.703  0.00  0.00    -0.059 A 
ATOM     29  C   UNL     1      -3.439  -0.761  -1.568  0.00  0.00    +0.005 A 
ATOM     30  C   UNL     1      -3.370  -1.981  -2.212  0.00  0.00    +0.046 A 
ATOM     31  C   UNL     1      -2.291  -2.824  -1.986  0.00  0.00    +0.120 A 
ATOM     32  C   UNL     1      -1.284  -2.439  -1.113  0.00  0.00    +0.046 A 
ATOM     33  C   UNL     1      -1.357  -1.218  -0.471  0.00  0.00    +0.005 A 
BRANCH  31  34
ATOM     34  O   UNL     1      -2.221  -4.025  -2.619  0.00  0.00    -0.495 OA
ATOM     35  C   UNL     1      -1.082  -4.840  -2.338  0.00  0.00    +0.277 C 
ENDBRANCH  31  34
ENDBRANCH  20  28
ENDBRANCH  19  20
ENDBRANCH   3  19
TORSDOF 9
