REMARK  Name = ZINC06594983
REMARK  4 active torsions:
REMARK  status: ('A' for Active; 'I' for Inactive)
REMARK    1  A    between atoms: C_4  and  C_7
REMARK    2  A    between atoms: C_7  and  C_9
REMARK    3  A    between atoms: C_9  and  S_10
REMARK    4  A    between atoms: S_10  and  C_11
REMARK                            x       y       z     vdW  Elec       q    Type
REMARK                         _______ _______ _______ _____ _____    ______ ____
ROOT
ATOM      1  C   UNL     1      -1.763   5.808  -4.186  0.00  0.00    +0.170 A 
ATOM      2  N   UNL     1      -1.654   4.495  -4.528  0.00  0.00    -0.301 N 
ATOM      3  H   UNL     1      -1.786   4.186  -5.576  0.00  0.00    +0.171 HD
ATOM      4  C   UNL     1      -1.384   3.519  -3.630  0.00  0.00    +0.261 A 
ATOM      5  O   UNL     1      -1.290   2.348  -3.955  0.00  0.00    -0.267 OA
ATOM      6  C   UNL     1      -1.215   3.947  -2.272  0.00  0.00    +0.075 A 
ATOM      7  C   UNL     1      -0.921   3.104  -1.125  0.00  0.00    -0.023 A 
ATOM      8  C   UNL     1      -0.805   3.725   0.070  0.00  0.00    -0.004 A 
ATOM      9  S   UNL     1      -1.076   5.446  -0.270  0.00  0.00    -0.073 S 
ATOM     10  C   UNL     1      -1.346   5.330  -2.011  0.00  0.00    +0.117 A 
ATOM     11  N   UNL     1      -1.613   6.239  -2.940  0.00  0.00    -0.216 NA
ATOM     12  C   UNL     1      -0.510   3.093   1.396  0.00  0.00    +0.043 C 
ATOM     13  C   UNL     1      -0.726   1.578   1.270  0.00  0.00    +0.005 C 
ATOM     14  C   UNL     1      -0.013   1.086   0.008  0.00  0.00    +0.005 C 
ATOM     15  C   UNL     1      -0.749   1.591  -1.233  0.00  0.00    +0.037 C 
ENDROOT
BRANCH   1  16
ATOM     16  S   UNL     1      -2.119   6.984  -5.449  0.00  0.00    -0.080 S 
BRANCH  16  17
ATOM     17  C   UNL     1      -2.150   8.503  -4.465  0.00  0.00    +0.156 C 
BRANCH  17  18
ATOM     18  C   UNL     1      -2.446   9.677  -5.362  0.00  0.00    +0.173 C 
ATOM     19  O   UNL     1      -2.619   9.504  -6.550  0.00  0.00    -0.291 OA
BRANCH  18  23
ATOM     20  C   UNL     1      -2.672  13.587  -3.734  0.00  0.00    +0.000 A 
ATOM     21  C   UNL     1      -2.871  13.393  -5.090  0.00  0.00    +0.001 A 
ATOM     22  C   UNL     1      -2.799  12.126  -5.627  0.00  0.00    +0.011 A 
ATOM     23  C   UNL     1      -2.524  11.033  -4.797  0.00  0.00    +0.018 A 
ATOM     24  C   UNL     1      -2.331  11.236  -3.427  0.00  0.00    +0.011 A 
ATOM     25  C   UNL     1      -2.400  12.511  -2.906  0.00  0.00    +0.001 A 
ENDBRANCH  18  23
ENDBRANCH  17  18
ENDBRANCH  16  17
ENDBRANCH   1  16
TORSDOF 4
