REMARK  Name = ZINC63330682
REMARK  9 active torsions:
REMARK  status: ('A' for Active; 'I' for Inactive)
REMARK    1  A    between atoms: C_1  and  C_2
REMARK    2  A    between atoms: C_4  and  N_17
REMARK    3  A    between atoms: N_8  and  C_11
REMARK    4  A    between atoms: N_9  and  C_10
REMARK    5  A    between atoms: N_17  and  C_18
REMARK    6  A    between atoms: C_18  and  N_20
REMARK    7  A    between atoms: N_20  and  C_21
REMARK    8  A    between atoms: C_21  and  C_22
REMARK    9  A    between atoms: C_22  and  C_23
REMARK                            x       y       z     vdW  Elec       q    Type
REMARK                         _______ _______ _______ _____ _____    ______ ____
ROOT
ATOM      1  N   UNL     1      -2.463   0.152   0.510  0.00  0.00    -0.314 N 
ATOM      2  H   UNL     1      -2.302   0.813   1.201  0.00  0.00    +0.149 HD
ENDROOT
BRANCH   1   5
ATOM      3  C   UNL     1      -0.242   1.629   0.258  0.00  0.00    +0.028 C 
ATOM      4  C   UNL     1      -0.009   0.121   0.147  0.00  0.00    +0.102 C 
ATOM      5  C   UNL     1      -1.348  -0.635  -0.025  0.00  0.00    +0.178 C 
ATOM      6  C   UNL     1      -1.119  -1.887   0.802  0.00  0.00    +0.256 C 
ATOM      7  O   UNL     1      -1.790  -2.897   0.769  0.00  0.00    -0.272 OA
ATOM      8  N   UNL     1      -0.039  -1.679   1.578  0.00  0.00    -0.201 N 
ATOM      9  N   UNL     1       0.494  -0.433   1.425  0.00  0.00    -0.218 NA
ATOM     10  C   UNL     1       0.133   0.436   2.554  0.00  0.00    +0.128 C 
BRANCH   8  11
ATOM     11  C   UNL     1       0.483  -2.640   2.451  0.00  0.00    +0.053 A 
ATOM     12  C   UNL     1      -0.364  -3.343   3.298  0.00  0.00    +0.025 A 
ATOM     13  C   UNL     1       0.154  -4.292   4.158  0.00  0.00    +0.002 A 
ATOM     14  C   UNL     1       1.514  -4.542   4.176  0.00  0.00    +0.000 A 
ATOM     15  C   UNL     1       2.360  -3.843   3.333  0.00  0.00    +0.002 A 
ATOM     16  C   UNL     1       1.847  -2.898   2.467  0.00  0.00    +0.025 A 
ENDBRANCH   8  11
ENDBRANCH   1   5
BRANCH   1  17
ATOM     17  C   UNL     1      -3.712  -0.045   0.043  0.00  0.00    +0.131 C 
ATOM     18  S   UNL     1      -3.995  -1.213  -1.176  0.00  0.00    -0.019 S 
BRANCH  17  19
ATOM     19  N   UNL     1      -4.737   0.679   0.535  0.00  0.00    -0.326 N 
ATOM     20  H   UNL     1      -4.576   1.341   1.225  0.00  0.00    +0.148 HD
BRANCH  19  21
ATOM     21  C   UNL     1      -6.094   0.465   0.026  0.00  0.00    +0.107 C 
BRANCH  21  22
ATOM     22  C   UNL     1      -7.062   1.406   0.746  0.00  0.00    +0.052 C 
BRANCH  22  23
ATOM     23  C   UNL     1      -8.458   1.187   0.224  0.00  0.00    -0.040 C 
ATOM     24  C   UNL     1      -9.411   0.390   0.759  0.00  0.00    -0.001 A 
ATOM     25  C   UNL     1      -9.432  -0.478   1.942  0.00  0.00    +0.010 A 
ATOM     26  C   UNL     1     -10.559  -1.169   2.229  0.00  0.00    +0.001 A 
ATOM     27  C   UNL     1     -11.704  -1.078   1.426  0.00  0.00    +0.002 A 
ATOM     28  C   UNL     1     -11.761  -0.302   0.323  0.00  0.00    +0.026 A 
ATOM     29  C   UNL     1     -10.634   0.469  -0.072  0.00  0.00    +0.043 A 
ATOM     30  N   UNL     1     -10.444   1.283  -1.082  0.00  0.00    -0.380 N 
ATOM     31  C   UNL     1      -9.080   1.818  -1.002  0.00  0.00    +0.144 C 
ATOM     32  H   UNL     1     -11.097   1.499  -1.766  0.00  0.00    +0.160 HD
ENDBRANCH  22  23
ENDBRANCH  21  22
ENDBRANCH  19  21
ENDBRANCH  17  19
ENDBRANCH   1  17
TORSDOF 7
