REMARK  Name = ZINC00690834
REMARK  4 active torsions:
REMARK  status: ('A' for Active; 'I' for Inactive)
REMARK    1  A    between atoms: C_4  and  C_7
REMARK    2  A    between atoms: C_12  and  C_26
REMARK    3  A    between atoms: C_14  and  C_24
REMARK    4  A    between atoms: C_15  and  N_23
REMARK                            x       y       z     vdW  Elec       q    Type
REMARK                         _______ _______ _______ _____ _____    ______ ____
ROOT
ATOM      1  C   UNL     1       3.969  -0.507  -0.018  0.00  0.00    +0.032 C 
ATOM      2  C   UNL     1       3.940  -1.410  -1.254  0.00  0.00    +0.060 C 
ATOM      3  C   UNL     1       5.169  -2.285  -1.271  0.00  0.00    +0.028 C 
ATOM      4  C   UNL     1       5.756  -2.682  -0.123  0.00  0.00    +0.025 C 
ATOM      5  C   UNL     1       6.984  -3.556  -0.142  0.00  0.00    +0.097 C 
ATOM      6  C   UNL     1       7.155  -4.224  -1.474  0.00  0.00    +0.077 C 
ATOM      7  C   UNL     1       6.512  -3.764  -2.578  0.00  0.00    +0.109 C 
ATOM      8  N   UNL     1       5.677  -2.672  -2.486  0.00  0.00    -0.229 N 
ATOM      9  C   UNL     1       5.346  -1.958  -3.631  0.00  0.00    +0.223 A 
ATOM     10  N   UNL     1       5.696  -0.683  -3.901  0.00  0.00    -0.246 N 
ATOM     11  H   UNL     1       6.222  -0.093  -3.339  0.00  0.00    +0.192 HD
ATOM     12  N   UNL     1       5.148  -0.381  -5.158  0.00  0.00    -0.160 NA
ATOM     13  C   UNL     1       4.518  -1.450  -5.566  0.00  0.00    +0.246 A 
ATOM     14  N   UNL     1       4.641  -2.407  -4.646  0.00  0.00    -0.201 NA
ATOM     15  C   UNL     1       5.242  -2.290   1.127  0.00  0.00    +0.162 C 
ATOM     16  O   UNL     1       5.783  -2.680   2.143  0.00  0.00    -0.292 OA
ATOM     17  C   UNL     1       4.040  -1.391   1.231  0.00  0.00    +0.088 C 
ENDROOT
BRANCH   5  18
ATOM     18  C   UNL     1       8.197  -2.709   0.144  0.00  0.00    -0.035 A 
ATOM     19  C   UNL     1       8.514  -1.652  -0.689  0.00  0.00    +0.005 A 
ATOM     20  C   UNL     1       9.626  -0.875  -0.426  0.00  0.00    +0.015 A 
ATOM     21  C   UNL     1      10.422  -1.154   0.670  0.00  0.00    +0.018 A 
ATOM     22  C   UNL     1      10.105  -2.212   1.503  0.00  0.00    +0.015 A 
ATOM     23  C   UNL     1       8.990  -2.986   1.243  0.00  0.00    +0.005 A 
ATOM     24 BR   UNL     1      11.945  -0.091   1.029  0.00  0.00    -0.050 Br
ENDBRANCH   5  18
BRANCH   1  28
ATOM     25  C   UNL     1       0.423   1.872   0.103  0.00  0.00    +0.000 A 
ATOM     26  C   UNL     1       1.663   2.481   0.050  0.00  0.00    +0.000 A 
ATOM     27  C   UNL     1       2.811   1.711   0.011  0.00  0.00    +0.004 A 
ATOM     28  C   UNL     1       2.718   0.332   0.025  0.00  0.00    -0.044 A 
ATOM     29  C   UNL     1       1.478  -0.277   0.080  0.00  0.00    +0.004 A 
ATOM     30  C   UNL     1       0.331   0.493   0.117  0.00  0.00    +0.000 A 
ENDBRANCH   1  28
BRANCH   7  31
ATOM     31  N   UNL     1       6.694  -4.389  -3.788  0.00  0.00    -0.345 N 
ATOM     32  H   UNL     1       7.348  -5.100  -3.874  0.00  0.00    +0.144 HD
ATOM     33  H   UNL     1       6.168  -4.119  -4.557  0.00  0.00    +0.144 HD
ENDBRANCH   7  31
BRANCH   6  34
ATOM     34  C   UNL     1       8.013  -5.365  -1.584  0.00  0.00    +0.099 C 
ATOM     35  N   UNL     1       8.693  -6.271  -1.671  0.00  0.00    -0.191 NA
ENDBRANCH   6  34
TORSDOF 4
