REMARK  Name = ZINC14157486
REMARK  11 active torsions:
REMARK  status: ('A' for Active; 'I' for Inactive)
REMARK    1  A    between atoms: C_1  and  C_2
REMARK    2  A    between atoms: C_4  and  C_33
REMARK    3  A    between atoms: N_10  and  C_11
REMARK    4  A    between atoms: C_11  and  N_13
REMARK    5  A    between atoms: N_13  and  C_14
REMARK    6  A    between atoms: C_16  and  O_23
REMARK    7  A    between atoms: C_19  and  O_20
REMARK    8  A    between atoms: O_20  and  C_21
REMARK    9  A    between atoms: O_23  and  C_24
REMARK   10  A    between atoms: N_25  and  C_26
REMARK   11  A    between atoms: C_26  and  C_27
REMARK                            x       y       z     vdW  Elec       q    Type
REMARK                         _______ _______ _______ _____ _____    ______ ____
ROOT
ATOM      1  C   UNL     1      -6.490   1.206   5.435  0.00  0.00    +0.066 C 
ATOM      2  C   UNL     1      -5.191   1.967   5.352  0.00  0.00    +0.044 A 
ATOM      3  C   UNL     1      -4.780   2.770   6.404  0.00  0.00    +0.046 A 
ATOM      4  C   UNL     1      -3.579   3.452   6.287  0.00  0.00    +0.044 A 
ATOM      5  N   UNL     1      -2.866   3.317   5.181  0.00  0.00    -0.217 NA
ATOM      6  C   UNL     1      -3.288   2.542   4.194  0.00  0.00    +0.231 A 
ATOM      7  N   UNL     1      -4.433   1.881   4.272  0.00  0.00    -0.217 NA
ATOM      8  N   UNL     1      -2.514   2.424   3.047  0.00  0.00    -0.297 N 
ATOM      9  C   UNL     1      -2.935   1.627   2.017  0.00  0.00    +0.195 C 
ATOM     10  N   UNL     1      -4.078   0.969   2.113  0.00  0.00    -0.159 NA
ATOM     11  N   UNL     1      -2.174   1.510   0.889  0.00  0.00    -0.355 N 
ATOM     12  C   UNL     1      -3.092   4.337   7.405  0.00  0.00    +0.066 C 
ATOM     13  H   UNL     1      -1.676   2.906   2.976  0.00  0.00    +0.171 HD
ATOM     14  H   UNL     1      -2.436   0.892   0.189  0.00  0.00    +0.162 HD
ENDROOT
BRANCH  10  15
ATOM     15  C   UNL     1      -4.434   0.100   1.157  0.00  0.00    +0.162 C 
ATOM     16  S   UNL     1      -3.507  -1.316   0.899  0.00  0.00    -0.016 S 
BRANCH  15  17
ATOM     17  N   UNL     1      -5.522   0.340   0.399  0.00  0.00    -0.292 N 
ATOM     18  H   UNL     1      -6.085   1.107   0.588  0.00  0.00    +0.154 HD
BRANCH  17  19
ATOM     19  C   UNL     1      -5.840  -0.517  -0.663  0.00  0.00    +0.078 A 
ATOM     20  C   UNL     1      -5.821  -1.891  -0.476  0.00  0.00    +0.074 A 
ATOM     21  C   UNL     1      -6.141  -2.737  -1.526  0.00  0.00    +0.140 A 
ATOM     22  C   UNL     1      -6.468  -2.210  -2.768  0.00  0.00    +0.086 A 
ATOM     23  C   UNL     1      -6.482  -0.840  -2.958  0.00  0.00    +0.071 A 
ATOM     24  C   UNL     1      -6.169   0.009  -1.910  0.00  0.00    +0.143 A 
ATOM     25 CL   UNL     1      -6.861  -3.272  -4.084  0.00  0.00    -0.080 Cl
BRANCH  24  26
ATOM     26  O   UNL     1      -6.183   1.357  -2.098  0.00  0.00    -0.493 OA
ATOM     27  C   UNL     1      -6.530   1.826  -3.402  0.00  0.00    +0.277 C 
ENDBRANCH  24  26
BRANCH  21  28
ATOM     28  O   UNL     1      -6.128  -4.085  -1.341  0.00  0.00    -0.494 OA
ATOM     29  C   UNL     1      -5.782  -4.558  -0.038  0.00  0.00    +0.277 C 
ENDBRANCH  21  28
ENDBRANCH  17  19
ENDBRANCH  15  17
ENDBRANCH  10  15
BRANCH  11  30
ATOM     30  C   UNL     1      -0.962   2.319   0.737  0.00  0.00    +0.147 C 
BRANCH  30  31
ATOM     31  C   UNL     1      -0.301   1.999  -0.605  0.00  0.00    +0.137 C 
ATOM     32  C   UNL     1       1.026   2.777  -0.750  0.00  0.00    +0.035 C 
ATOM     33  C   UNL     1       1.074   3.162  -2.246  0.00  0.00    +0.031 C 
ATOM     34  C   UNL     1      -0.230   2.572  -2.827  0.00  0.00    +0.160 C 
ATOM     35  O   UNL     1      -1.123   2.465  -1.697  0.00  0.00    -0.375 OA
ENDBRANCH  30  31
ENDBRANCH  11  30
TORSDOF 7
