REMARK  Name = ZINC63582005
REMARK  5 active torsions:
REMARK  status: ('A' for Active; 'I' for Inactive)
REMARK    1  A    between atoms: C_7  and  C_10
REMARK    2  A    between atoms: C_10  and  C_11
REMARK    3  A    between atoms: C_11  and  C_13
REMARK    4  A    between atoms: C_11  and  N_24
REMARK    5  A    between atoms: N_15  and  C_16
REMARK                            x       y       z     vdW  Elec       q    Type
REMARK                         _______ _______ _______ _____ _____    ______ ____
ROOT
ATOM      1  C   UNL     1       0.467  -3.606  -1.337  0.00  0.00    +0.148 C 
ENDROOT
BRANCH   1   2
ATOM      2  N   UNL     1      -0.358  -2.536  -1.914  0.00  0.00    -0.288 NA
ATOM      3  C   UNL     1      -1.523  -2.259  -1.071  0.00  0.00    +0.108 C 
ATOM      4  C   UNL     1      -2.114  -0.891  -1.431  0.00  0.00    +0.181 C 
ATOM      5  S   UNL     1      -2.672  -0.940  -3.162  0.00  0.00    -0.029 S 
ATOM      6  O   UNL     1      -2.912   0.391  -3.598  0.00  0.00    -0.174 OA
ATOM      7  O   UNL     1      -3.708  -1.905  -3.276  0.00  0.00    -0.174 OA
ATOM      8  C   UNL     1      -1.191  -1.570  -4.010  0.00  0.00    +0.181 C 
ATOM      9  C   UNL     1      -0.727  -2.845  -3.297  0.00  0.00    +0.108 C 
ENDBRANCH   1   2
BRANCH   1  10
ATOM     10  C   UNL     1      -0.360  -4.858  -1.199  0.00  0.00    +0.235 C 
ATOM     11  O   UNL     1      -1.571  -4.788  -1.193  0.00  0.00    -0.274 OA
ATOM     12  N   UNL     1       0.246  -6.056  -1.083  0.00  0.00    -0.282 N 
ATOM     13  H   UNL     1       1.212  -6.107  -1.014  0.00  0.00    +0.155 HD
BRANCH  12  14
ATOM     14  C   UNL     1      -0.520  -7.229  -1.062  0.00  0.00    +0.069 A 
ATOM     15  C   UNL     1      -1.816  -7.205  -0.567  0.00  0.00    +0.027 A 
ATOM     16  C   UNL     1      -2.570  -8.363  -0.547  0.00  0.00    +0.022 A 
ATOM     17  C   UNL     1      -2.033  -9.548  -1.020  0.00  0.00    +0.044 A 
ATOM     18  C   UNL     1      -0.741  -9.577  -1.514  0.00  0.00    +0.060 A 
ATOM     19  C   UNL     1       0.016  -8.420  -1.541  0.00  0.00    +0.146 A 
ATOM     20  F   UNL     1       1.276  -8.447  -2.029  0.00  0.00    -0.203 F 
ATOM     21 CL   UNL     1      -2.983 -11.000  -0.992  0.00  0.00    -0.083 Cl
ENDBRANCH  12  14
ENDBRANCH   1  10
BRANCH   1  22
ATOM     22  C   UNL     1       0.971  -3.174   0.042  0.00  0.00    +0.061 C 
BRANCH  22  29
ATOM     23  C   UNL     1       0.384   1.370   0.287  0.00  0.00    +0.001 A 
ATOM     24  C   UNL     1       1.561   2.101   0.076  0.00  0.00    +0.002 A 
ATOM     25  C   UNL     1       2.750   1.513  -0.175  0.00  0.00    +0.026 A 
ATOM     26  C   UNL     1       2.852   0.096  -0.235  0.00  0.00    +0.043 A 
ATOM     27  N   UNL     1       3.871  -0.697  -0.459  0.00  0.00    -0.380 N 
ATOM     28  C   UNL     1       3.404  -2.087  -0.406  0.00  0.00    +0.144 C 
ATOM     29  C   UNL     1       1.922  -2.015  -0.112  0.00  0.00    -0.040 C 
ATOM     30  C   UNL     1       1.623  -0.700  -0.015  0.00  0.00    -0.001 A 
ATOM     31  C   UNL     1       0.370   0.018   0.252  0.00  0.00    +0.010 A 
ATOM     32  H   UNL     1       4.783  -0.413  -0.630  0.00  0.00    +0.160 HD
ENDBRANCH  22  29
ENDBRANCH   1  22
TORSDOF 5
