REMARK  Name = ZINC16974411
REMARK  10 active torsions:
REMARK  status: ('A' for Active; 'I' for Inactive)
REMARK    1  A    between atoms: C_1  and  C_2
REMARK    2  A    between atoms: C_2  and  O_3
REMARK    3  A    between atoms: O_3  and  C_4
REMARK    4  A    between atoms: C_8  and  C_10
REMARK    5  A    between atoms: N_16  and  N_17
REMARK    6  A    between atoms: C_18  and  C_19
REMARK    7  A    between atoms: C_22  and  C_25
REMARK    8  A    between atoms: C_25  and  C_26
REMARK    9  A    between atoms: C_25  and  C_27
REMARK   10  A    between atoms: C_25  and  C_28
REMARK                            x       y       z     vdW  Elec       q    Type
REMARK                         _______ _______ _______ _____ _____    ______ ____
ROOT
ATOM      1  C   UNL     1      -2.502   1.006   0.019  0.00  0.00    +0.184 A 
ATOM      2  N   UNL     1      -2.637  -0.263   0.287  0.00  0.00    -0.152 NA
ATOM      3  N   UNL     1      -3.997  -0.587   0.182  0.00  0.00    -0.253 N 
ATOM      4  H   UNL     1      -4.391  -1.461   0.327  0.00  0.00    +0.191 HD
ATOM      5  C   UNL     1      -4.658   0.539  -0.158  0.00  0.00    +0.197 A 
ATOM      6  S   UNL     1      -6.345   0.683  -0.411  0.00  0.00    -0.010 S 
ATOM      7  N   UNL     1      -3.751   1.531  -0.257  0.00  0.00    -0.188 N 
ENDROOT
BRANCH   1  12
ATOM      8  C   UNL     1       1.176   1.786   0.000  0.00  0.00    +0.121 A 
ATOM      9  C   UNL     1       1.155   3.175   0.008  0.00  0.00    +0.045 A 
ATOM     10  C   UNL     1      -0.049   3.853   0.023  0.00  0.00    +0.004 A 
ATOM     11  C   UNL     1      -1.240   3.154   0.031  0.00  0.00    +0.012 A 
ATOM     12  C   UNL     1      -1.228   1.759   0.017  0.00  0.00    +0.024 A 
ATOM     13  C   UNL     1      -0.013   1.076   0.008  0.00  0.00    +0.057 A 
BRANCH   8  14
ATOM     14  O   UNL     1       2.363   1.125  -0.015  0.00  0.00    -0.492 OA
BRANCH  14  16
ATOM     15  C   UNL     1       4.777   1.008  -0.039  0.00  0.00    +0.048 C 
ATOM     16  C   UNL     1       3.549   1.921  -0.022  0.00  0.00    +0.225 C 
ENDBRANCH  14  16
ENDBRANCH   8  14
ENDBRANCH   1  12
BRANCH   7  17
ATOM     17  N   UNL     1      -4.026   2.865  -0.587  0.00  0.00    -0.171 NA
ATOM     18  C   UNL     1      -4.013   3.242  -1.829  0.00  0.00    +0.141 C 
BRANCH  18  19
ATOM     19  C   UNL     1      -4.303   4.646  -2.176  0.00  0.00    -0.005 A 
ATOM     20  C   UNL     1      -4.597   5.571  -1.171  0.00  0.00    +0.010 A 
ATOM     21  C   UNL     1      -4.861   6.883  -1.503  0.00  0.00    +0.005 A 
ATOM     22  C   UNL     1      -4.847   7.282  -2.828  0.00  0.00    -0.042 A 
ATOM     23  C   UNL     1      -4.562   6.370  -3.829  0.00  0.00    +0.005 A 
ATOM     24  C   UNL     1      -4.290   5.055  -3.511  0.00  0.00    +0.010 A 
BRANCH  22  25
ATOM     25  C   UNL     1      -5.144   8.716  -3.183  0.00  0.00    -0.013 C 
ATOM     26  C   UNL     1      -6.369   8.772  -4.097  0.00  0.00    +0.015 C 
ATOM     27  C   UNL     1      -5.424   9.510  -1.905  0.00  0.00    +0.015 C 
ATOM     28  C   UNL     1      -3.940   9.322  -3.906  0.00  0.00    +0.015 C 
ENDBRANCH  22  25
ENDBRANCH  18  19
ENDBRANCH   7  17
TORSDOF 6
