REMARK  Name = ZINC39951104
REMARK  6 active torsions:
REMARK  status: ('A' for Active; 'I' for Inactive)
REMARK    1  A    between atoms: C_1  and  C_2
REMARK    2  A    between atoms: C_2  and  C_3
REMARK    3  A    between atoms: C_8  and  C_23
REMARK    4  A    between atoms: C_14  and  C_16
REMARK    5  A    between atoms: C_20  and  N_22
REMARK    6  A    between atoms: C_23  and  C_24
REMARK                            x       y       z     vdW  Elec       q    Type
REMARK                         _______ _______ _______ _____ _____    ______ ____
ROOT
ATOM      1  C   UNL     1       0.671  -0.607   1.242  0.00  0.00    +0.040 C 
ATOM      2  C   UNL     1       2.080  -0.101   1.284  0.00  0.00    -0.003 C 
ATOM      3  C   UNL     1       3.043  -0.932   2.056  0.00  0.00    -0.075 C 
ATOM      4  N   UNL     1       2.523  -1.564   3.244  0.00  0.00    +0.393 N 
ATOM      5  C   UNL     1       1.590  -0.838   4.051  0.00  0.00    -0.060 C 
ATOM      6  C   UNL     1       0.116  -0.965   3.708  0.00  0.00    +0.027 C 
ATOM      7  C   UNL     1      -0.136  -0.191   2.432  0.00  0.00    +0.146 C 
ATOM      8  O   UNL     1      -0.943   0.706   2.384  0.00  0.00    -0.296 OA
ATOM      9  C   UNL     1      -0.231  -2.424   3.369  0.00  0.00    +0.095 C 
ATOM     10  N   UNL     1       0.721  -2.858   2.336  0.00  0.00    -0.310 NA
ATOM     11  C   UNL     1       0.617  -2.125   1.081  0.00  0.00    +0.097 C 
ATOM     12  C   UNL     1       2.069  -2.918   2.901  0.00  0.00    +0.033 C 
ATOM     13  H   UNL     1       3.324  -1.703   3.842  0.00  0.00    -0.079 HD
ENDROOT
BRANCH  12  14
ATOM     14  C   UNL     1       2.055  -3.772   4.142  0.00  0.00    -0.045 A 
ATOM     15  C   UNL     1       1.225  -4.875   4.212  0.00  0.00    +0.003 A 
ATOM     16  C   UNL     1       1.208  -5.661   5.350  0.00  0.00    +0.002 A 
ATOM     17  C   UNL     1       2.022  -5.346   6.420  0.00  0.00    +0.023 A 
ATOM     18  C   UNL     1       2.858  -4.239   6.353  0.00  0.00    +0.025 A 
ATOM     19  C   UNL     1       2.875  -3.454   5.207  0.00  0.00    +0.026 A 
BRANCH  18  20
ATOM     20  N   UNL     1       3.682  -3.917   7.434  0.00  0.00    -0.358 N 
ATOM     21  H   UNL     1       3.672  -4.468   8.233  0.00  0.00    +0.142 HD
ATOM     22  H   UNL     1       4.265  -3.144   7.386  0.00  0.00    +0.142 HD
ENDBRANCH  18  20
ENDBRANCH  12  14
BRANCH   1  24
ATOM     23  C   UNL     1       0.705  -0.508  -1.254  0.00  0.00    +0.005 C 
ATOM     24  C   UNL     1       0.005   0.003   0.007  0.00  0.00    +0.012 C 
ENDBRANCH   1  24
BRANCH   6  25
ATOM     25  C   UNL     1      -0.754  -0.436   4.851  0.00  0.00    +0.010 C 
ATOM     26  C   UNL     1      -2.230  -0.577   4.475  0.00  0.00    +0.005 C 
ENDBRANCH   6  25
TORSDOF 4
