REMARK  Name = ZINC39726114
REMARK  4 active torsions:
REMARK  status: ('A' for Active; 'I' for Inactive)
REMARK    1  A    between atoms: C_3  and  C_6
REMARK    2  A    between atoms: C_11  and  N_22
REMARK    3  A    between atoms: C_13  and  C_15
REMARK    4  A    between atoms: C_15  and  N_16
REMARK                            x       y       z     vdW  Elec       q    Type
REMARK                         _______ _______ _______ _____ _____    ______ ____
ROOT
ATOM      1  C   UNL     1       3.792   1.845   0.015  0.00  0.00    +0.008 A 
ATOM      2  C   UNL     1       4.251   2.701  -0.970  0.00  0.00    +0.057 A 
ATOM      3  S   UNL     1       5.924   2.674  -0.817  0.00  0.00    -0.076 S 
ATOM      4  C   UNL     1       6.077   1.543   0.538  0.00  0.00    +0.114 A 
ATOM      5  C   UNL     1       4.728   1.211   0.844  0.00  0.00    +0.058 A 
ATOM      6  C   UNL     1       4.547   0.294   1.929  0.00  0.00    +0.144 A 
ATOM      7  N   UNL     1       5.631  -0.169   2.563  0.00  0.00    -0.213 NA
ATOM      8  C   UNL     1       6.844   0.192   2.220  0.00  0.00    +0.146 A 
ATOM      9  N   UNL     1       7.070   1.031   1.216  0.00  0.00    -0.223 NA
ENDROOT
BRANCH   6  10
ATOM     10  N   UNL     1       3.321  -0.090   2.301  0.00  0.00    -0.339 N 
ATOM     11  C   UNL     1       3.160  -0.838   3.391  0.00  0.00    +0.043 C 
ATOM     12  C   UNL     1       4.231  -0.922   4.383  0.00  0.00    +0.028 C 
ATOM     13  C   UNL     1       4.081  -1.678   5.494  0.00  0.00    +0.032 C 
ATOM     14  C   UNL     1       2.885  -2.395   5.708  0.00  0.00    +0.095 C 
ATOM     15  N   UNL     1       2.442  -3.203   6.671  0.00  0.00    -0.190 NA
ATOM     16  C   UNL     1       1.214  -3.614   6.363  0.00  0.00    +0.369 C 
ATOM     17  O   UNL     1       0.473  -4.449   7.133  0.00  0.00    -0.243 OA
ATOM     18  N   UNL     1       0.809  -3.107   5.215  0.00  0.00    -0.190 NA
ATOM     19  C   UNL     1       1.799  -2.321   4.723  0.00  0.00    +0.097 C 
ATOM     20  C   UNL     1       1.950  -1.545   3.591  0.00  0.00    +0.055 C 
ATOM     21  H   UNL     1       2.549   0.175   1.777  0.00  0.00    +0.167 HD
ENDBRANCH   6  10
BRANCH   1  24
ATOM     22  C   UNL     1       0.056   2.052   0.603  0.00  0.00    +0.008 A 
ATOM     23  C   UNL     1       1.346   2.517   0.485  0.00  0.00    +0.016 A 
ATOM     24  C   UNL     1       2.348   1.610   0.192  0.00  0.00    +0.021 A 
ATOM     25  S   UNL     1       1.435   0.078   0.086  0.00  0.00    -0.097 S 
ATOM     26  C   UNL     1      -0.192   0.727   0.430  0.00  0.00    +0.046 A 
ENDBRANCH   1  24
BRANCH   8  27
ATOM     27  C   UNL     1       8.017  -0.371   2.980  0.00  0.00    +0.160 C 
BRANCH  27  28
ATOM     28  N   UNL     1       8.463  -1.616   2.340  0.00  0.00    -0.291 NA
ATOM     29  C   UNL     1       7.440  -2.666   2.461  0.00  0.00    +0.113 C 
ATOM     30  C   UNL     1       7.919  -3.924   1.731  0.00  0.00    +0.175 C 
ATOM     31  O   UNL     1       9.179  -4.331   2.272  0.00  0.00    -0.377 OA
ATOM     32  C   UNL     1      10.199  -3.333   2.171  0.00  0.00    +0.175 C 
ATOM     33  C   UNL     1       9.742  -2.069   2.904  0.00  0.00    +0.113 C 
ENDBRANCH  27  28
ENDBRANCH   8  27
TORSDOF 4
