REMARK  Name = ZINC39323265
REMARK  3 active torsions:
REMARK  status: ('A' for Active; 'I' for Inactive)
REMARK    1  A    between atoms: C_10  and  C_21
REMARK    2  A    between atoms: C_12  and  C_19
REMARK    3  A    between atoms: C_13  and  N_18
REMARK                            x       y       z     vdW  Elec       q    Type
REMARK                         _______ _______ _______ _____ _____    ______ ____
ROOT
ATOM      1  C   UNL     1       1.358   1.755  -0.537  0.00  0.00    +0.001 A 
ATOM      2  C   UNL     1       2.658   2.222  -0.373  0.00  0.00    +0.002 A 
ATOM      3  C   UNL     1       3.706   1.374  -0.174  0.00  0.00    +0.024 A 
ATOM      4  C   UNL     1       3.489  -0.013  -0.132  0.00  0.00    +0.044 A 
ATOM      5  N   UNL     1       4.517  -0.845   0.074  0.00  0.00    -0.284 N 
ATOM      6  C   UNL     1       4.405  -2.158   0.109  0.00  0.00    +0.229 C 
ATOM      7  O   UNL     1       5.388  -2.848   0.307  0.00  0.00    -0.275 OA
ATOM      8  C   UNL     1       3.054  -2.805  -0.096  0.00  0.00    +0.154 C 
ATOM      9  C   UNL     1       2.737  -3.607   1.171  0.00  0.00    +0.089 C 
ATOM     10  C   UNL     1       1.302  -4.054   1.143  0.00  0.00    +0.095 C 
ATOM     11  C   UNL     1       0.360  -3.449   0.387  0.00  0.00    +0.198 C 
ATOM     12  O   UNL     1       0.654  -2.400  -0.417  0.00  0.00    -0.444 OA
ATOM     13  C   UNL     1       1.876  -1.871  -0.311  0.00  0.00    +0.129 C 
ATOM     14  C   UNL     1       2.118  -0.505  -0.312  0.00  0.00    +0.035 A 
ATOM     15  C   UNL     1       1.076   0.424  -0.508  0.00  0.00    +0.013 A 
ATOM     16  H   UNL     1       5.397  -0.459   0.206  0.00  0.00    +0.155 HD
ENDROOT
BRANCH   9  17
ATOM     17  C   UNL     1       2.969  -2.742   2.382  0.00  0.00    +0.032 A 
ATOM     18  C   UNL     1       2.106  -1.696   2.662  0.00  0.00    +0.130 A 
ATOM     19  C   UNL     1       2.319  -0.902   3.776  0.00  0.00    +0.039 A 
ATOM     20  C   UNL     1       3.393  -1.153   4.608  0.00  0.00    +0.006 A 
ATOM     21  C   UNL     1       4.256  -2.196   4.330  0.00  0.00    +0.039 A 
ATOM     22  C   UNL     1       4.041  -2.996   3.220  0.00  0.00    +0.130 A 
ATOM     23  F   UNL     1       4.881  -4.019   2.952  0.00  0.00    -0.205 F 
ATOM     24  F   UNL     1       1.056  -1.451   1.848  0.00  0.00    -0.205 F 
ENDBRANCH   9  17
BRANCH  11  25
ATOM     25  N   UNL     1      -0.932  -3.910   0.436  0.00  0.00    -0.328 N 
ATOM     26  H   UNL     1      -1.158  -4.660   1.007  0.00  0.00    +0.145 HD
ATOM     27  H   UNL     1      -1.620  -3.485  -0.101  0.00  0.00    +0.145 HD
ENDBRANCH  11  25
BRANCH  10  28
ATOM     28  C   UNL     1       0.916  -5.170   1.953  0.00  0.00    +0.100 C 
ATOM     29  N   UNL     1       0.610  -6.056   2.596  0.00  0.00    -0.191 NA
ENDBRANCH  10  28
TORSDOF 3
