REMARK  Name = ZINC03105488
REMARK  8 active torsions:
REMARK  status: ('A' for Active; 'I' for Inactive)
REMARK    1  A    between atoms: C_1  and  C_2
REMARK    2  A    between atoms: C_2  and  C_4
REMARK    3  A    between atoms: C_2  and  C_15
REMARK    4  A    between atoms: C_7  and  C_10
REMARK    5  A    between atoms: C_15  and  C_17
REMARK    6  A    between atoms: C_19  and  C_23
REMARK    7  A    between atoms: N_28  and  C_31
REMARK    8  A    between atoms: C_34  and  C_36
REMARK                            x       y       z     vdW  Elec       q    Type
REMARK                         _______ _______ _______ _____ _____    ______ ____
ROOT
ATOM      1  C   UNL     1       1.548  -7.604  -4.295  0.00  0.00    +0.036 A 
ATOM      2  C   UNL     1       0.437  -7.277  -3.481  0.00  0.00    +0.043 A 
ATOM      3  C   UNL     1       0.854  -6.319  -2.606  0.00  0.00    +0.103 A 
ATOM      4  N   UNL     1       2.184  -6.055  -2.851  0.00  0.00    -0.356 N 
ATOM      5  H   UNL     1       2.728  -5.415  -2.366  0.00  0.00    +0.165 HD
ATOM      6  C   UNL     1       2.610  -6.824  -3.864  0.00  0.00    +0.094 A 
ENDROOT
BRANCH   3   7
ATOM      7  C   UNL     1       0.027  -5.681  -1.574  0.00  0.00    +0.263 C 
ATOM      8  O   UNL     1      -0.974  -6.238  -1.165  0.00  0.00    -0.268 OA
ATOM      9  N   UNL     1       0.378  -4.477  -1.079  0.00  0.00    -0.293 N 
ATOM     10  C   UNL     1      -0.348  -3.887   0.056  0.00  0.00    +0.127 C 
ATOM     11  C   UNL     1      -0.758  -2.458  -0.318  0.00  0.00    +0.125 C 
ATOM     12  N   UNL     1       0.429  -1.710  -0.753  0.00  0.00    -0.313 N 
ATOM     13  C   UNL     1       1.014  -2.297  -1.965  0.00  0.00    +0.125 C 
ATOM     14  C   UNL     1       1.497  -3.719  -1.659  0.00  0.00    +0.127 C 
BRANCH  12  15
ATOM     15  C   UNL     1       0.128  -0.366  -0.945  0.00  0.00    +0.118 A 
ATOM     16  C   UNL     1       0.764   0.601  -0.171  0.00  0.00    +0.079 A 
ATOM     17  C   UNL     1       0.455   1.935  -0.374  0.00  0.00    +0.037 A 
ATOM     18  C   UNL     1      -0.483   2.257  -1.346  0.00  0.00    +0.072 A 
ATOM     19  C   UNL     1      -1.074   1.246  -2.077  0.00  0.00    +0.096 A 
ATOM     20 CL   UNL     1       1.928   0.141   1.032  0.00  0.00    -0.080 Cl
ATOM     21  N   UNL     1      -0.795  -0.074  -1.905  0.00  0.00    -0.348 N 
ATOM     22  H   UNL     1      -1.252  -0.804  -2.464  0.00  0.00    +0.167 HD
BRANCH  18  23
ATOM     23  C   UNL     1      -0.850   3.696  -1.602  0.00  0.00    +0.419 C 
ATOM     24  F   UNL     1      -1.807   3.759  -2.621  0.00  0.00    -0.166 F 
ATOM     25  F   UNL     1      -1.376   4.258  -0.433  0.00  0.00    -0.166 F 
ATOM     26  F   UNL     1       0.291   4.407  -1.989  0.00  0.00    -0.166 F 
ENDBRANCH  18  23
ENDBRANCH  12  15
ENDBRANCH   3   7
BRANCH   1  27
ATOM     27  C   UNL     1       1.573  -8.588  -5.382  0.00  0.00    +0.173 C 
ATOM     28  O   UNL     1       0.570  -9.210  -5.661  0.00  0.00    -0.291 OA
BRANCH  27  30
ATOM     29  C   UNL     1       2.960  -7.796  -7.279  0.00  0.00    +0.022 C 
ATOM     30  C   UNL     1       2.846  -8.826  -6.154  0.00  0.00    +0.107 C 
BRANCH  30  31
ATOM     31  C   UNL     1       2.824 -10.213  -6.742  0.00  0.00    +0.070 A 
ATOM     32  C   UNL     1       3.812 -11.118  -6.396  0.00  0.00    +0.063 A 
ATOM     33  C   UNL     1       3.779 -12.394  -6.941  0.00  0.00    +0.035 A 
ATOM     34  C   UNL     1       2.757 -12.709  -7.823  0.00  0.00    +0.074 A 
ATOM     35  C   UNL     1       1.809 -11.750  -8.126  0.00  0.00    +0.123 A 
ATOM     36  N   UNL     1       1.868 -10.548  -7.586  0.00  0.00    -0.257 NA
ATOM     37 CL   UNL     1       5.071 -10.665  -5.291  0.00  0.00    -0.082 Cl
BRANCH  34  38
ATOM     38  C   UNL     1       2.683 -14.079  -8.446  0.00  0.00    +0.419 C 
ATOM     39  F   UNL     1       1.571 -14.146  -9.293  0.00  0.00    -0.166 F 
ATOM     40  F   UNL     1       3.846 -14.320  -9.184  0.00  0.00    -0.166 F 
ATOM     41  F   UNL     1       2.560 -15.043  -7.439  0.00  0.00    -0.166 F 
ENDBRANCH  34  38
ENDBRANCH  30  31
ENDBRANCH  27  30
ENDBRANCH   1  27
TORSDOF 7
