REMARK  Name = ZINC39304169
REMARK  6 active torsions:
REMARK  status: ('A' for Active; 'I' for Inactive)
REMARK    1  A    between atoms: C_1  and  C_2
REMARK    2  A    between atoms: C_6  and  O_27
REMARK    3  A    between atoms: C_7  and  O_26
REMARK    4  A    between atoms: N_12  and  C_13
REMARK    5  A    between atoms: C_13  and  C_14
REMARK    6  A    between atoms: N_16  and  C_17
REMARK                            x       y       z     vdW  Elec       q    Type
REMARK                         _______ _______ _______ _____ _____    ______ ____
ROOT
ATOM      1  C   UNL     1      -0.152   1.163   0.011  0.00  0.00    -0.008 C 
ATOM      2  C   UNL     1       0.064  -0.348  -0.103  0.00  0.00    -0.040 C 
ATOM      3  C   UNL     1      -1.274  -1.035  -0.184  0.00  0.00    -0.054 A 
ATOM      4  C   UNL     1      -2.268  -0.459  -0.963  0.00  0.00    +0.051 A 
ATOM      5  C   UNL     1      -3.510  -1.058  -1.068  0.00  0.00    +0.158 A 
ATOM      6  C   UNL     1      -3.763  -2.247  -0.388  0.00  0.00    +0.158 A 
ATOM      7  C   UNL     1      -2.770  -2.817   0.388  0.00  0.00    +0.053 A 
ATOM      8  C   UNL     1      -1.527  -2.211   0.490  0.00  0.00    -0.044 A 
ATOM      9  C   UNL     1      -0.476  -2.863   1.353  0.00  0.00    +0.017 C 
ATOM     10  C   UNL     1       0.900  -2.285   1.020  0.00  0.00    -0.073 C 
ATOM     11  N   UNL     1       0.814  -0.818   1.065  0.00  0.00    +0.390 N 
ATOM     12  H   UNL     1       0.340  -0.532   1.909  0.00  0.00    -0.080 HD
ENDROOT
BRANCH   6  13
ATOM     13  O   UNL     1      -4.981  -2.844  -0.487  0.00  0.00    -0.503 OA
ATOM     14  H   UNL     1      -5.051  -3.476  -1.215  0.00  0.00    +0.292 HD
ENDBRANCH   6  13
BRANCH   5  15
ATOM     15  O   UNL     1      -4.480  -0.489  -1.833  0.00  0.00    -0.503 OA
ATOM     16  H   UNL     1      -4.479  -0.785  -2.753  0.00  0.00    +0.292 HD
ENDBRANCH   5  15
BRANCH  11  17
ATOM     17  C   UNL     1       2.167  -0.246   1.042  0.00  0.00    +0.020 C 
BRANCH  17  18
ATOM     18  C   UNL     1       2.896  -0.630   2.304  0.00  0.00    +0.201 C 
ATOM     19  O   UNL     1       2.343  -1.313   3.140  0.00  0.00    -0.278 OA
ATOM     20  N   UNL     1       4.163  -0.215   2.503  0.00  0.00    -0.287 N 
ATOM     21  H   UNL     1       4.632   0.265   1.803  0.00  0.00    +0.155 HD
BRANCH  20  22
ATOM     22  C   UNL     1       4.803  -0.478   3.722  0.00  0.00    +0.037 A 
ATOM     23  C   UNL     1       6.171  -0.709   3.752  0.00  0.00    +0.027 A 
ATOM     24  C   UNL     1       6.804  -0.967   4.953  0.00  0.00    +0.051 A 
ATOM     25  C   UNL     1       6.074  -0.998   6.130  0.00  0.00    +0.166 A 
ATOM     26  C   UNL     1       4.701  -0.767   6.103  0.00  0.00    +0.168 A 
ATOM     27  C   UNL     1       4.069  -0.502   4.900  0.00  0.00    +0.072 A 
ATOM     28  O   UNL     1       4.219  -0.852   7.378  0.00  0.00    -0.453 OA
ATOM     29  C   UNL     1       5.237  -1.539   8.129  0.00  0.00    +0.466 C 
ATOM     30  O   UNL     1       6.452  -1.227   7.423  0.00  0.00    -0.453 OA
ENDBRANCH  20  22
ENDBRANCH  17  18
ENDBRANCH  11  17
TORSDOF 5
