REMARK  Name = ZINC13049922
REMARK  7 active torsions:
REMARK  status: ('A' for Active; 'I' for Inactive)
REMARK    1  A    between atoms: C_6  and  O_13
REMARK    2  A    between atoms: C_7  and  C_11
REMARK    3  A    between atoms: O_13  and  C_14
REMARK    4  A    between atoms: C_14  and  C_15
REMARK    5  A    between atoms: N_17  and  C_18
REMARK    6  A    between atoms: C_22  and  S_24
REMARK    7  A    between atoms: S_24  and  N_27
REMARK                            x       y       z     vdW  Elec       q    Type
REMARK                         _______ _______ _______ _____ _____    ______ ____
ROOT
ATOM      1  C   UNL     1       5.100   4.968   0.705  0.00  0.00    +0.255 C 
ATOM      2  O   UNL     1       4.230   5.495   1.365  0.00  0.00    -0.272 OA
ATOM      3  N   UNL     1       5.945   5.724  -0.024  0.00  0.00    -0.283 N 
ATOM      4  H   UNL     1       6.687   5.309  -0.491  0.00  0.00    +0.155 HD
ENDROOT
BRANCH   3   5
ATOM      5  C   UNL     1       5.751   7.107  -0.107  0.00  0.00    +0.035 A 
ATOM      6  C   UNL     1       4.465   7.632  -0.090  0.00  0.00    +0.023 A 
ATOM      7  C   UNL     1       4.278   8.998  -0.167  0.00  0.00    +0.004 A 
ATOM      8  C   UNL     1       5.368   9.842  -0.273  0.00  0.00    +0.029 A 
ATOM      9  C   UNL     1       6.649   9.322  -0.295  0.00  0.00    +0.114 A 
ATOM     10  C   UNL     1       6.843   7.957  -0.213  0.00  0.00    +0.052 A 
BRANCH   9  11
ATOM     11  S   UNL     1       8.034  10.403  -0.429  0.00  0.00    +0.100 S 
ATOM     12  O   UNL     1       7.611  11.668   0.058  0.00  0.00    -0.146 OA
ATOM     13  O   UNL     1       9.146   9.708   0.120  0.00  0.00    -0.146 OA
BRANCH  11  14
ATOM     14  N   UNL     1       8.349  10.598  -2.043  0.00  0.00    -0.118 NA
ATOM     15  C   UNL     1       9.328  11.352  -2.425  0.00  0.00    +0.117 C 
ATOM     16  C   UNL     1      10.191  12.068  -1.389  0.00  0.00    +0.073 C 
ATOM     17  C   UNL     1      11.561  11.412  -1.423  0.00  0.00    +0.008 C 
ATOM     18  C   UNL     1      12.511  12.043  -2.444  0.00  0.00    +0.002 C 
ATOM     19  C   UNL     1      11.837  12.344  -3.783  0.00  0.00    +0.019 C 
ATOM     20  C   UNL     1      10.928  11.232  -4.258  0.00  0.00    +0.102 C 
ATOM     21  N   UNL     1       9.579  11.509  -3.709  0.00  0.00    -0.331 N 
ATOM     22  H   UNL     1       8.873  11.809  -4.303  0.00  0.00    +0.147 HD
ENDBRANCH  11  14
ENDBRANCH   9  11
ENDBRANCH   3   5
BRANCH   1  23
ATOM     23  C   UNL     1       5.237   3.467   0.700  0.00  0.00    +0.324 C 
BRANCH  23  24
ATOM     24  O   UNL     1       4.234   2.894   1.542  0.00  0.00    -0.482 OA
BRANCH  24  30
ATOM     25  C   UNL     1       5.080  -3.368   1.301  0.00  0.00    +0.001 A 
ATOM     26  C   UNL     1       6.030  -2.741   0.497  0.00  0.00    +0.001 A 
ATOM     27  C   UNL     1       6.063  -1.386   0.376  0.00  0.00    +0.008 A 
ATOM     28  C   UNL     1       5.126  -0.601   1.071  0.00  0.00    -0.014 A 
ATOM     29  C   UNL     1       5.136   0.800   0.965  0.00  0.00    +0.055 A 
ATOM     30  C   UNL     1       4.218   1.541   1.649  0.00  0.00    +0.136 A 
ATOM     31  C   UNL     1       3.252   0.917   2.466  0.00  0.00    +0.105 A 
ATOM     32  C   UNL     1       3.224  -0.463   2.591  0.00  0.00    +0.027 A 
ATOM     33  C   UNL     1       4.159  -1.239   1.890  0.00  0.00    -0.017 A 
ATOM     34  C   UNL     1       4.157  -2.643   1.989  0.00  0.00    +0.008 A 
BRANCH  31  35
ATOM     35  C   UNL     1       2.268   1.738   3.196  0.00  0.00    +0.390 C 
ATOM     36  O   UNL     1       2.292   2.948   3.094  0.00  0.00    -0.240 OA
ATOM     37  O   UNL     1       1.344   1.146   3.978  0.00  0.00    -0.240 OA
ENDBRANCH  31  35
ENDBRANCH  24  30
ENDBRANCH  23  24
ENDBRANCH   1  23
TORSDOF 7
