REMARK  Name = ZINC36486841
REMARK  13 active torsions:
REMARK  status: ('A' for Active; 'I' for Inactive)
REMARK    1  A    between atoms: C_1  and  C_2
REMARK    2  A    between atoms: C_2  and  C_3
REMARK    3  A    between atoms: C_2  and  C_4
REMARK    4  A    between atoms: C_2  and  N_5
REMARK    5  A    between atoms: C_6  and  C_8
REMARK    6  A    between atoms: C_8  and  C_10
REMARK    7  A    between atoms: C_8  and  N_19
REMARK    8  A    between atoms: C_13  and  O_18
REMARK    9  A    between atoms: C_14  and  O_16
REMARK   10  A    between atoms: O_16  and  C_17
REMARK   11  A    between atoms: N_19  and  C_20
REMARK   12  A    between atoms: C_27  and  C_29
REMARK   13  A    between atoms: C_29  and  C_30
REMARK                            x       y       z     vdW  Elec       q    Type
REMARK                         _______ _______ _______ _____ _____    ______ ____
ROOT
ATOM      1  N   UNL     1       3.939  -0.155  -3.233  0.00  0.00    -0.255 N 
ATOM      2  C   UNL     1       4.013   1.185  -3.355  0.00  0.00    +0.225 C 
ATOM      3  O   UNL     1       3.066   1.875  -3.042  0.00  0.00    -0.275 OA
ENDROOT
BRANCH   1   4
ATOM      4  C   UNL     1       4.993  -0.958  -3.684  0.00  0.00    +0.039 A 
ATOM      5  C   UNL     1       4.825  -1.760  -4.806  0.00  0.00    +0.023 A 
ATOM      6  C   UNL     1       5.866  -2.551  -5.250  0.00  0.00    +0.003 A 
ATOM      7  C   UNL     1       7.075  -2.546  -4.579  0.00  0.00    +0.020 A 
ATOM      8  C   UNL     1       7.246  -1.749  -3.461  0.00  0.00    +0.043 A 
ATOM      9  C   UNL     1       6.209  -0.950  -3.016  0.00  0.00    +0.043 A 
ATOM     10 CL   UNL     1       8.765  -1.746  -2.621  0.00  0.00    -0.083 Cl
ENDBRANCH   1   4
BRANCH   1  11
ATOM     11  C   UNL     1       2.756  -0.772  -2.627  0.00  0.00    +0.197 C 
BRANCH  11  12
ATOM     12  C   UNL     1       2.863  -2.271  -2.729  0.00  0.00    -0.014 A 
ATOM     13  C   UNL     1       3.953  -2.924  -2.182  0.00  0.00    +0.010 A 
ATOM     14  C   UNL     1       4.055  -4.300  -2.273  0.00  0.00    +0.049 A 
ATOM     15  C   UNL     1       3.065  -5.027  -2.914  0.00  0.00    +0.158 A 
ATOM     16  C   UNL     1       1.969  -4.370  -3.464  0.00  0.00    +0.162 A 
ATOM     17  C   UNL     1       1.869  -2.992  -3.365  0.00  0.00    +0.055 A 
BRANCH  16  18
ATOM     18  O   UNL     1       0.994  -5.080  -4.093  0.00  0.00    -0.491 OA
ATOM     19  C   UNL     1      -0.102  -4.339  -4.634  0.00  0.00    +0.277 C 
ENDBRANCH  16  18
BRANCH  15  20
ATOM     20  O   UNL     1       3.165  -6.381  -3.005  0.00  0.00    -0.503 OA
ATOM     21  H   UNL     1       2.760  -6.855  -2.266  0.00  0.00    +0.292 HD
ENDBRANCH  15  20
ENDBRANCH  11  12
BRANCH  11  23
ATOM     22  N   UNL     1       1.655  -0.824  -0.413  0.00  0.00    -0.309 N 
ATOM     23  C   UNL     1       2.669  -0.372  -1.176  0.00  0.00    +0.239 C 
ATOM     24  O   UNL     1       3.512   0.356  -0.696  0.00  0.00    -0.273 OA
ATOM     25  H   UNL     1       0.981  -1.406  -0.797  0.00  0.00    +0.149 HD
BRANCH  22  27
ATOM     26  C   UNL     1       1.462   1.087   1.101  0.00  0.00    +0.031 C 
ATOM     27  C   UNL     1       1.570  -0.435   0.997  0.00  0.00    +0.026 C 
ATOM     28  C   UNL     1       2.825  -0.909   1.733  0.00  0.00    +0.031 C 
ATOM     29  C   UNL     1       0.335  -1.079   1.630  0.00  0.00    +0.031 C 
ENDBRANCH  22  27
ENDBRANCH  11  23
ENDBRANCH   1  11
BRANCH   2  30
ATOM     30  C   UNL     1       5.271   1.826  -3.882  0.00  0.00    +0.131 C 
BRANCH  30  31
ATOM     31  C   UNL     1       5.132   3.325  -3.828  0.00  0.00    -0.035 A 
ATOM     32  C   UNL     1       4.601   4.008  -4.907  0.00  0.00    +0.008 A 
ATOM     33  C   UNL     1       4.471   5.383  -4.862  0.00  0.00    +0.050 A 
ATOM     34  C   UNL     1       4.873   6.081  -3.735  0.00  0.00    +0.166 A 
ATOM     35  C   UNL     1       5.407   5.394  -2.648  0.00  0.00    +0.166 A 
ATOM     36  C   UNL     1       5.529   4.015  -2.698  0.00  0.00    +0.053 A 
ATOM     37  O   UNL     1       5.722   6.296  -1.673  0.00  0.00    -0.453 OA
ATOM     38  C   UNL     1       5.755   7.576  -2.331  0.00  0.00    +0.466 C 
ATOM     39  O   UNL     1       4.853   7.414  -3.441  0.00  0.00    -0.453 OA
ENDBRANCH  30  31
ENDBRANCH   2  30
TORSDOF 9
