REMARK  Name = ZINC07078411
REMARK  6 active torsions:
REMARK  status: ('A' for Active; 'I' for Inactive)
REMARK    1  A    between atoms: N_2  and  C_3
REMARK    2  A    between atoms: C_3  and  C_4
REMARK    3  A    between atoms: C_4  and  O_5
REMARK    4  A    between atoms: O_5  and  C_6
REMARK    5  A    between atoms: C_6  and  C_7
REMARK    6  A    between atoms: C_6  and  C_14
REMARK                            x       y       z     vdW  Elec       q    Type
REMARK                         _______ _______ _______ _____ _____    ______ ____
ROOT
ATOM      1  C   UNL     1      -0.013   1.086   0.008  0.00  0.00    +0.178 C 
ENDROOT
BRANCH   1   2
ATOM      2  C   UNL     1      -0.742   1.585  -1.213  0.00  0.00    -0.014 A 
ATOM      3  C   UNL     1      -0.474   2.847  -1.709  0.00  0.00    +0.007 A 
ATOM      4  C   UNL     1      -1.139   3.304  -2.832  0.00  0.00    +0.015 A 
ATOM      5  C   UNL     1      -2.079   2.501  -3.452  0.00  0.00    +0.018 A 
ATOM      6  C   UNL     1      -2.350   1.240  -2.952  0.00  0.00    +0.015 A 
ATOM      7  C   UNL     1      -1.681   0.783  -1.833  0.00  0.00    +0.007 A 
ATOM      8 BR   UNL     1      -2.994   3.128  -4.984  0.00  0.00    -0.050 Br
ENDBRANCH   1   2
BRANCH   1   9
ATOM      9  C   UNL     1      -0.718   1.572   1.248  0.00  0.00    -0.014 A 
ATOM     10  C   UNL     1      -0.510   2.861   1.700  0.00  0.00    +0.007 A 
ATOM     11  C   UNL     1      -1.161   3.309   2.835  0.00  0.00    +0.015 A 
ATOM     12  C   UNL     1      -2.012   2.463   3.523  0.00  0.00    +0.018 A 
ATOM     13  C   UNL     1      -2.215   1.171   3.073  0.00  0.00    +0.015 A 
ATOM     14  C   UNL     1      -1.568   0.726   1.936  0.00  0.00    +0.007 A 
ATOM     15 BR   UNL     1      -2.897   3.073   5.079  0.00  0.00    -0.050 Br
ENDBRANCH   1   9
BRANCH   1  16
ATOM     16  O   UNL     1       1.328   1.580  -0.002  0.00  0.00    -0.366 OA
BRANCH  16  17
ATOM     17  C   UNL     1       2.271   0.718   0.637  0.00  0.00    +0.184 C 
BRANCH  17  18
ATOM     18  C   UNL     1       3.665   1.344   0.567  0.00  0.00    +0.168 C 
BRANCH  18  20
ATOM     19  C   UNL     1       4.415   2.671   2.393  0.00  0.00    +0.134 C 
ATOM     20  N   UNL     1       3.683   2.584   1.347  0.00  0.00    -0.297 NA
ENDBRANCH  18  20
ENDBRANCH  17  18
ENDBRANCH  16  17
ENDBRANCH   1  16
TORSDOF 6
