REMARK  Name = ZINC34761126
REMARK  10 active torsions:
REMARK  status: ('A' for Active; 'I' for Inactive)
REMARK    1  A    between atoms: C_1  and  C_2
REMARK    2  A    between atoms: C_2  and  C_3
REMARK    3  A    between atoms: C_3  and  S_4
REMARK    4  A    between atoms: S_4  and  C_5
REMARK    5  A    between atoms: C_9  and  C_15
REMARK    6  A    between atoms: C_10  and  C_14
REMARK    7  A    between atoms: C_15  and  C_16
REMARK    8  A    between atoms: N_20  and  C_23
REMARK    9  A    between atoms: C_23  and  C_24
REMARK   10  A    between atoms: N_26  and  C_27
REMARK                            x       y       z     vdW  Elec       q    Type
REMARK                         _______ _______ _______ _____ _____    ______ ____
ROOT
ATOM      1  C   UNL     1       3.506  -2.353  -3.324  0.00  0.00    +0.191 A 
ATOM      2  N   UNL     1       3.632  -3.648  -3.590  0.00  0.00    -0.206 NA
ATOM      3  C   UNL     1       2.656  -4.350  -4.141  0.00  0.00    +0.134 A 
ATOM      4  C   UNL     1       1.430  -3.705  -4.463  0.00  0.00    +0.051 A 
ATOM      5  C   UNL     1       0.225  -4.251  -5.065  0.00  0.00    -0.025 A 
ATOM      6  C   UNL     1      -0.824  -3.443  -5.279  0.00  0.00    -0.007 A 
ATOM      7  S   UNL     1      -0.262  -1.862  -4.676  0.00  0.00    -0.073 S 
ATOM      8  C   UNL     1       1.367  -2.329  -4.154  0.00  0.00    +0.115 A 
ATOM      9  N   UNL     1       2.385  -1.700  -3.598  0.00  0.00    -0.215 NA
ATOM     10  C   UNL     1      -2.160  -3.790  -5.884  0.00  0.00    +0.052 C 
ATOM     11  N   UNL     1       2.827  -5.697  -4.402  0.00  0.00    -0.318 N 
ATOM     12  C   UNL     1       3.409  -6.154  -5.673  0.00  0.00    +0.088 C 
ATOM     13  C   UNL     1       4.538  -7.143  -5.362  0.00  0.00    -0.059 C 
ATOM     14  N   UNL     1       4.022  -8.221  -4.510  0.00  0.00    +0.387 N 
ATOM     15  C   UNL     1       3.605  -7.677  -3.212  0.00  0.00    -0.059 C 
ATOM     16  C   UNL     1       2.436  -6.715  -3.413  0.00  0.00    +0.088 C 
ATOM     17  H   UNL     1       3.230  -8.655  -4.961  0.00  0.00    -0.081 HD
ENDROOT
BRANCH   5  18
ATOM     18  C   UNL     1       0.156  -5.707  -5.446  0.00  0.00    +0.033 C 
ATOM     19  C   UNL     1      -0.517  -6.497  -4.321  0.00  0.00    +0.009 C 
ENDBRANCH   5  18
BRANCH   1  20
ATOM     20  S   UNL     1       4.853  -1.487  -2.589  0.00  0.00    -0.086 S 
BRANCH  20  21
ATOM     21  C   UNL     1       4.237   0.210  -2.408  0.00  0.00    +0.077 C 
BRANCH  21  23
ATOM     22  C   UNL     1       4.803   2.513  -1.621  0.00  0.00    +0.004 C 
ATOM     23  C   UNL     1       5.322   1.081  -1.773  0.00  0.00    +0.008 C 
ENDBRANCH  21  23
ENDBRANCH  20  21
ENDBRANCH   1  20
BRANCH  14  24
ATOM     24  C   UNL     1       5.074  -9.226  -4.303  0.00  0.00    +0.019 C 
BRANCH  24  25
ATOM     25  C   UNL     1       4.511 -10.392  -3.533  0.00  0.00    +0.197 C 
ATOM     26  O   UNL     1       3.348 -10.387  -3.189  0.00  0.00    -0.278 OA
ATOM     27  N   UNL     1       5.300 -11.440  -3.224  0.00  0.00    -0.314 N 
ATOM     28  H   UNL     1       6.230 -11.444  -3.499  0.00  0.00    +0.149 HD
BRANCH  27  29
ATOM     29  C   UNL     1       4.752 -12.574  -2.475  0.00  0.00    +0.073 C 
ATOM     30  C   UNL     1       4.816 -12.273  -0.977  0.00  0.00    +0.022 C 
ATOM     31  C   UNL     1       4.245 -13.457  -0.194  0.00  0.00    +0.002 C 
ATOM     32  C   UNL     1       5.064 -14.713  -0.498  0.00  0.00    +0.000 C 
ATOM     33  C   UNL     1       5.000 -15.013  -1.996  0.00  0.00    +0.002 C 
ATOM     34  C   UNL     1       5.572 -13.829  -2.779  0.00  0.00    +0.022 C 
ENDBRANCH  27  29
ENDBRANCH  24  25
ENDBRANCH  14  24
TORSDOF 7
