REMARK  Name = ZINC63187780
REMARK  13 active torsions:
REMARK  status: ('A' for Active; 'I' for Inactive)
REMARK    1  A    between atoms: C_1  and  C_2
REMARK    2  A    between atoms: C_2  and  C_3
REMARK    3  A    between atoms: C_2  and  C_4
REMARK    4  A    between atoms: C_4  and  N_5
REMARK    5  A    between atoms: N_5  and  C_6
REMARK    6  A    between atoms: C_6  and  C_7
REMARK    7  A    between atoms: C_7  and  C_8
REMARK    8  A    between atoms: N_12  and  C_13
REMARK    9  A    between atoms: C_13  and  C_14
REMARK   10  A    between atoms: C_14  and  C_16
REMARK   11  A    between atoms: C_14  and  C_24
REMARK   12  A    between atoms: C_19  and  O_22
REMARK   13  A    between atoms: O_22  and  C_23
REMARK                            x       y       z     vdW  Elec       q    Type
REMARK                         _______ _______ _______ _____ _____    ______ ____
ROOT
ATOM      1  C   UNL     1       0.772   3.906  -3.440  0.00  0.00    +0.064 C 
ENDROOT
BRANCH   1   2
ATOM      2  C   UNL     1       0.225   3.115  -4.599  0.00  0.00    -0.033 C 
ATOM      3  C   UNL     1      -1.015   2.587  -4.710  0.00  0.00    -0.000 A 
ATOM      4  C   UNL     1      -2.180   2.589  -3.817  0.00  0.00    +0.010 A 
ATOM      5  C   UNL     1      -3.310   1.959  -4.212  0.00  0.00    +0.001 A 
ATOM      6  C   UNL     1      -3.396   1.305  -5.449  0.00  0.00    +0.002 A 
ATOM      7  C   UNL     1      -2.368   1.260  -6.322  0.00  0.00    +0.026 A 
ATOM      8  C   UNL     1      -1.132   1.890  -6.011  0.00  0.00    +0.043 A 
ATOM      9  N   UNL     1      -0.007   1.984  -6.679  0.00  0.00    -0.380 N 
ATOM     10  C   UNL     1       0.949   2.758  -5.878  0.00  0.00    +0.145 C 
ATOM     11  H   UNL     1       0.162   1.609  -7.557  0.00  0.00    +0.160 HD
ENDBRANCH   1   2
BRANCH   1  12
ATOM     12  C   UNL     1       1.172   5.280  -3.913  0.00  0.00    -0.038 A 
ATOM     13  C   UNL     1       2.130   5.419  -4.900  0.00  0.00    +0.008 A 
ATOM     14  C   UNL     1       2.498   6.677  -5.335  0.00  0.00    +0.046 A 
ATOM     15  C   UNL     1       1.906   7.803  -4.781  0.00  0.00    +0.120 A 
ATOM     16  C   UNL     1       0.945   7.661  -3.790  0.00  0.00    +0.046 A 
ATOM     17  C   UNL     1       0.576   6.400  -3.362  0.00  0.00    +0.008 A 
BRANCH  15  18
ATOM     18  O   UNL     1       2.266   9.042  -5.207  0.00  0.00    -0.495 OA
ATOM     19  C   UNL     1       1.615  10.155  -4.591  0.00  0.00    +0.277 C 
ENDBRANCH  15  18
ENDBRANCH   1  12
BRANCH   1  20
ATOM     20  C   UNL     1       1.996   3.189  -2.865  0.00  0.00    +0.118 C 
BRANCH  20  24
ATOM     21  N   UNL     1       2.125  -0.091  -1.209  0.00  0.00    -0.284 N 
ATOM     22  C   UNL     1       2.502   1.093  -1.732  0.00  0.00    +0.302 C 
ATOM     23  O   UNL     1       3.670   1.430  -1.692  0.00  0.00    -0.253 OA
ATOM     24  N   UNL     1       1.586   1.903  -2.298  0.00  0.00    -0.298 N 
ATOM     25  H   UNL     1       0.654   1.633  -2.329  0.00  0.00    +0.150 HD
BRANCH  21  26
ATOM     26  C   UNL     1       0.718  -0.497  -1.257  0.00  0.00    +0.112 C 
BRANCH  26  28
ATOM     27  C   UNL     1      -0.019   1.526   0.010  0.00  0.00    +0.009 C 
ATOM     28  C   UNL     1       0.002  -0.004   0.002  0.00  0.00    +0.000 C 
ATOM     29  C   UNL     1      -1.433  -0.534   0.013  0.00  0.00    +0.009 C 
ENDBRANCH  26  28
ENDBRANCH  21  26
BRANCH  21  30
ATOM     30  C   UNL     1       3.121  -0.971  -0.594  0.00  0.00    +0.124 C 
BRANCH  30  31
ATOM     31  C   UNL     1       3.695  -1.913  -1.655  0.00  0.00    +0.137 C 
BRANCH  31  32
ATOM     32  C   UNL     1       4.696  -2.797  -1.037  0.00  0.00    +0.064 C 
ATOM     33  N   UNL     1       5.469  -3.480  -0.560  0.00  0.00    -0.197 NA
ENDBRANCH  31  32
ENDBRANCH  30  31
ENDBRANCH  21  30
ENDBRANCH  20  24
ENDBRANCH   1  20
TORSDOF 10
