REMARK  Name = ZINC58537494
REMARK  10 active torsions:
REMARK  status: ('A' for Active; 'I' for Inactive)
REMARK    1  A    between atoms: C_1  and  C_2
REMARK    2  A    between atoms: C_2  and  C_3
REMARK    3  A    between atoms: C_2  and  C_4
REMARK    4  A    between atoms: C_2  and  C_5
REMARK    5  A    between atoms: C_7  and  C_13
REMARK    6  A    between atoms: C_8  and  O_12
REMARK    7  A    between atoms: C_9  and  O_11
REMARK    8  A    between atoms: C_13  and  N_14
REMARK    9  A    between atoms: C_17  and  C_20
REMARK   10  A    between atoms: C_20  and  C_22
REMARK                            x       y       z     vdW  Elec       q    Type
REMARK                         _______ _______ _______ _____ _____    ______ ____
ROOT
ATOM      1  N   UNL     1       0.616  -4.219  -3.805  0.00  0.00    +0.382 N 
ATOM      2  C   UNL     1       0.921  -3.671  -5.132  0.00  0.00    -0.078 C 
ATOM      3  C   UNL     1      -0.184  -4.062  -6.116  0.00  0.00    -0.007 C 
ATOM      4  C   UNL     1      -0.269  -5.589  -6.200  0.00  0.00    +0.057 C 
ATOM      5  C   UNL     1      -0.514  -6.154  -4.798  0.00  0.00    -0.007 C 
ATOM      6  C   UNL     1       0.604  -5.686  -3.863  0.00  0.00    -0.078 C 
ATOM      7  H   UNL     1      -0.289  -3.888  -3.507  0.00  0.00    -0.081 HD
ENDROOT
BRANCH   4   8
ATOM      8  C   UNL     1      -1.407  -5.981  -7.107  0.00  0.00    +0.166 C 
ATOM      9  O   UNL     1      -2.339  -5.223  -7.272  0.00  0.00    -0.292 OA
BRANCH   8  10
ATOM     10  C   UNL     1      -1.386  -7.281  -7.790  0.00  0.00    +0.021 A 
ATOM     11  C   UNL     1      -0.314  -8.160  -7.597  0.00  0.00    +0.015 A 
ATOM     12  C   UNL     1      -0.298  -9.376  -8.240  0.00  0.00    +0.050 A 
ATOM     13  C   UNL     1      -1.344  -9.738  -9.083  0.00  0.00    +0.162 A 
ATOM     14  C   UNL     1      -2.416  -8.869  -9.279  0.00  0.00    +0.163 A 
ATOM     15  C   UNL     1      -2.442  -7.648  -8.633  0.00  0.00    +0.060 A 
ATOM     16  O   UNL     1      -3.450  -9.213 -10.095  0.00  0.00    -0.485 OA
ATOM     17  C   UNL     1      -3.217 -10.288 -11.011  0.00  0.00    +0.270 C 
ATOM     18  C   UNL     1      -2.538 -11.432 -10.246  0.00  0.00    +0.270 C 
ATOM     19  O   UNL     1      -1.304 -10.943  -9.710  0.00  0.00    -0.485 OA
ENDBRANCH   8  10
ENDBRANCH   4   8
BRANCH   1  20
ATOM     20  C   UNL     1       1.639  -3.777  -2.848  0.00  0.00    -0.039 C 
BRANCH  20  23
ATOM     21  C   UNL     1       2.434  -0.095  -3.112  0.00  0.00    -0.038 A 
ATOM     22  C   UNL     1       2.508  -1.467  -3.263  0.00  0.00    +0.009 A 
ATOM     23  C   UNL     1       1.556  -2.282  -2.679  0.00  0.00    -0.019 A 
ATOM     24  C   UNL     1       0.525  -1.724  -1.940  0.00  0.00    +0.160 A 
ATOM     25  C   UNL     1       0.452  -0.342  -1.787  0.00  0.00    +0.159 A 
ATOM     26  C   UNL     1       1.412   0.468  -2.371  0.00  0.00    +0.053 A 
BRANCH  21  28
ATOM     27  C   UNL     1       3.169   2.253  -3.426  0.00  0.00    +0.015 C 
ATOM     28  C   UNL     1       3.475   0.789  -3.750  0.00  0.00    -0.013 C 
ATOM     29  C   UNL     1       3.454   0.587  -5.267  0.00  0.00    +0.015 C 
ATOM     30  C   UNL     1       4.857   0.424  -3.206  0.00  0.00    +0.015 C 
ENDBRANCH  21  28
BRANCH  25  31
ATOM     31  O   UNL     1      -0.557   0.210  -1.062  0.00  0.00    -0.503 OA
ATOM     32  H   UNL     1      -0.355   0.315  -0.123  0.00  0.00    +0.292 HD
ENDBRANCH  25  31
BRANCH  24  33
ATOM     33  O   UNL     1      -0.412  -2.524  -1.365  0.00  0.00    -0.503 OA
ATOM     34  H   UNL     1      -0.226  -2.748  -0.443  0.00  0.00    +0.292 HD
ENDBRANCH  24  33
ENDBRANCH  20  23
ENDBRANCH   1  20
TORSDOF 7
