REMARK  Name = ZINC20879796
REMARK  8 active torsions:
REMARK  status: ('A' for Active; 'I' for Inactive)
REMARK    1  A    between atoms: C_1  and  O_2
REMARK    2  A    between atoms: O_2  and  C_3
REMARK    3  A    between atoms: C_5  and  C_19
REMARK    4  A    between atoms: C_8  and  O_9
REMARK    5  A    between atoms: O_9  and  C_10
REMARK    6  A    between atoms: C_10  and  C_11
REMARK    7  A    between atoms: C_19  and  N_20
REMARK    8  A    between atoms: N_20  and  C_21
REMARK                            x       y       z     vdW  Elec       q    Type
REMARK                         _______ _______ _______ _____ _____    ______ ____
ROOT
ATOM      1  C   UNL     1       2.387   1.405  -0.013  0.00  0.00    +0.163 A 
ATOM      2  C   UNL     1       2.398   0.020  -0.021  0.00  0.00    +0.054 A 
ATOM      3  C   UNL     1       1.207  -0.682  -0.013  0.00  0.00    -0.025 A 
ATOM      4  C   UNL     1       0.002  -0.004   0.002  0.00  0.00    +0.029 A 
ATOM      5  C   UNL     1      -0.017   1.379   0.010  0.00  0.00    +0.086 A 
ATOM      6  C   UNL     1       1.175   2.088   0.002  0.00  0.00    +0.181 A 
ATOM      7 CL   UNL     1      -1.532   2.227   0.021  0.00  0.00    -0.080 Cl
ENDROOT
BRANCH   1   9
ATOM      8  C   UNL     1       4.764   1.330  -0.036  0.00  0.00    +0.277 C 
ATOM      9  O   UNL     1       3.558   2.097  -0.020  0.00  0.00    -0.491 OA
ENDBRANCH   1   9
BRANCH   6  10
ATOM     10  O   UNL     1       1.159   3.448   0.009  0.00  0.00    -0.482 OA
BRANCH  10  11
ATOM     11  C   UNL     1       1.163   4.091   1.286  0.00  0.00    +0.264 C 
BRANCH  11  12
ATOM     12  C   UNL     1       1.143   5.585   1.096  0.00  0.00    -0.010 A 
ATOM     13  C   UNL     1       2.332   6.286   1.003  0.00  0.00    +0.008 A 
ATOM     14  C   UNL     1       2.314   7.656   0.824  0.00  0.00    +0.020 A 
ATOM     15  C   UNL     1       1.107   8.328   0.748  0.00  0.00    +0.041 A 
ATOM     16  C   UNL     1      -0.081   7.628   0.846  0.00  0.00    +0.020 A 
ATOM     17  C   UNL     1      -0.063   6.257   1.020  0.00  0.00    +0.008 A 
ATOM     18 CL   UNL     1       1.085  10.050   0.528  0.00  0.00    -0.084 Cl
ENDBRANCH  11  12
ENDBRANCH  10  11
ENDBRANCH   6  10
BRANCH   3  19
ATOM     19  C   UNL     1       1.222  -2.189  -0.021  0.00  0.00    +0.137 C 
BRANCH  19  20
ATOM     20  N   UNL     1       1.213  -2.670  -1.405  0.00  0.00    -0.340 N 
ATOM     21  H   UNL     1       1.198  -1.951  -2.237  0.00  0.00    +0.146 HD
BRANCH  20  22
ATOM     22  C   UNL     1       1.224  -4.044  -1.667  0.00  0.00    +0.029 A 
ATOM     23  C   UNL     1       1.249  -4.952  -0.614  0.00  0.00    +0.025 A 
ATOM     24  C   UNL     1       1.255  -6.309  -0.867  0.00  0.00    +0.029 A 
ATOM     25  C   UNL     1       1.247  -6.769  -2.175  0.00  0.00    +0.067 A 
ATOM     26  C   UNL     1       1.227  -5.861  -3.235  0.00  0.00    +0.069 A 
ATOM     27  C   UNL     1       1.216  -4.498  -2.978  0.00  0.00    +0.050 A 
ATOM     28  N   UNL     1       1.223  -6.611  -4.408  0.00  0.00    -0.306 N 
ATOM     29  H   UNL     1       1.208  -6.104  -5.385  0.00  0.00    +0.170 HD
ATOM     30  C   UNL     1       1.239  -7.916  -4.079  0.00  0.00    +0.325 A 
ATOM     31  O   UNL     1       1.240  -8.839  -4.872  0.00  0.00    -0.247 OA
ATOM     32  N   UNL     1       1.254  -8.046  -2.739  0.00  0.00    -0.306 N 
ATOM     33  H   UNL     1       1.269  -8.934  -2.090  0.00  0.00    +0.170 HD
ENDBRANCH  20  22
ENDBRANCH  19  20
ENDBRANCH   3  19
TORSDOF 7
