REMARK  Name = ZINC20885222
REMARK  7 active torsions:
REMARK  status: ('A' for Active; 'I' for Inactive)
REMARK    1  A    between atoms: C_1  and  C_2
REMARK    2  A    between atoms: C_7  and  C_8
REMARK    3  A    between atoms: C_19  and  C_22
REMARK    4  A    between atoms: C_25  and  O_28
REMARK    5  A    between atoms: O_28  and  C_29
REMARK    6  A    between atoms: C_29  and  C_30
REMARK    7  A    between atoms: C_29  and  C_31
REMARK                            x       y       z     vdW  Elec       q    Type
REMARK                         _______ _______ _______ _____ _____    ______ ____
ROOT
ATOM      1  C   UNL     1       6.565   7.513  -0.624  0.00  0.00    +0.063 C 
ATOM      2  C   UNL     1       7.856   7.096  -1.331  0.00  0.00    +0.109 C 
ATOM      3  C   UNL     1       7.635   7.131  -2.821  0.00  0.00    +0.218 C 
ATOM      4  O   UNL     1       8.545   7.441  -3.560  0.00  0.00    -0.275 OA
ATOM      5  N   UNL     1       6.432   6.819  -3.333  0.00  0.00    -0.289 N 
ATOM      6  C   UNL     1       5.392   6.441  -2.523  0.00  0.00    +0.018 C 
ATOM      7  C   UNL     1       5.403   6.745  -1.209  0.00  0.00    +0.020 C 
ATOM      8  C   UNL     1       4.351   6.361  -0.360  0.00  0.00    +0.162 C 
ATOM      9  O   UNL     1       4.391   6.665   0.816  0.00  0.00    -0.292 OA
ATOM     10  C   UNL     1       3.178   5.578  -0.884  0.00  0.00    +0.088 C 
ATOM     11  C   UNL     1       3.634   4.742  -2.084  0.00  0.00    +0.032 C 
ATOM     12  C   UNL     1       4.239   5.680  -3.131  0.00  0.00    +0.059 C 
ATOM     13  H   UNL     1       6.269   6.864  -4.420  0.00  0.00    +0.155 HD
ENDROOT
BRANCH   1  20
ATOM     14  C   UNL     1       6.677   9.299   1.645  0.00  0.00    +0.044 C 
ATOM     15  C   UNL     1       6.394   9.845   0.269  0.00  0.00    -0.047 A 
ATOM     16  C   UNL     1       6.188  11.200   0.092  0.00  0.00    +0.003 A 
ATOM     17  C   UNL     1       5.929  11.701  -1.170  0.00  0.00    +0.000 A 
ATOM     18  C   UNL     1       5.875  10.847  -2.255  0.00  0.00    +0.000 A 
ATOM     19  C   UNL     1       6.086   9.492  -2.079  0.00  0.00    +0.004 A 
ATOM     20  C   UNL     1       6.340   8.990  -0.816  0.00  0.00    -0.036 A 
ENDBRANCH   1  20
BRANCH  11  21
ATOM     21  C   UNL     1       2.451   4.020  -2.676  0.00  0.00    -0.043 A 
ATOM     22  C   UNL     1       2.452   2.639  -2.749  0.00  0.00    +0.007 A 
ATOM     23  C   UNL     1       1.369   1.974  -3.292  0.00  0.00    +0.046 A 
ATOM     24  C   UNL     1       0.283   2.694  -3.769  0.00  0.00    +0.121 A 
ATOM     25  C   UNL     1       0.283   4.079  -3.690  0.00  0.00    +0.046 A 
ATOM     26  C   UNL     1       1.368   4.739  -3.146  0.00  0.00    +0.007 A 
BRANCH  24  27
ATOM     27  O   UNL     1      -0.781   2.042  -4.308  0.00  0.00    -0.489 OA
BRANCH  27  28
ATOM     28  C   UNL     1      -1.909   2.838  -4.677  0.00  0.00    +0.167 C 
ATOM     29  C   UNL     1      -1.682   3.430  -6.069  0.00  0.00    +0.051 C 
ATOM     30  C   UNL     1      -3.166   1.965  -4.693  0.00  0.00    +0.051 C 
ENDBRANCH  27  28
ENDBRANCH  24  27
ENDBRANCH  11  21
TORSDOF 4
