REMARK  Name = ZINC33726915
REMARK  6 active torsions:
REMARK  status: ('A' for Active; 'I' for Inactive)
REMARK    1  A    between atoms: C_1  and  C_2
REMARK    2  A    between atoms: C_7  and  N_31
REMARK    3  A    between atoms: C_8  and  C_13
REMARK    4  A    between atoms: N_17  and  C_21
REMARK    5  A    between atoms: C_21  and  C_22
REMARK    6  A    between atoms: N_31  and  C_32
REMARK                            x       y       z     vdW  Elec       q    Type
REMARK                         _______ _______ _______ _____ _____    ______ ____
ROOT
ATOM      1  C   UNL     1      -5.602   7.878  -4.421  0.00  0.00    +0.045 C 
ATOM      2  C   UNL     1      -4.501   8.822  -4.014  0.00  0.00    -0.034 A 
ATOM      3  C   UNL     1      -4.126   9.868  -4.869  0.00  0.00    +0.008 A 
ATOM      4  C   UNL     1      -3.129  10.719  -4.493  0.00  0.00    +0.047 A 
ATOM      5  C   UNL     1      -2.490  10.534  -3.254  0.00  0.00    +0.142 A 
ATOM      6  N   UNL     1      -1.515  11.370  -2.895  0.00  0.00    -0.214 NA
ATOM      7  C   UNL     1      -0.879  11.242  -1.740  0.00  0.00    +0.134 A 
ATOM      8  C   UNL     1      -1.238  10.195  -0.859  0.00  0.00    +0.081 A 
ATOM      9  C   UNL     1      -2.270   9.310  -1.252  0.00  0.00    +0.267 A 
ATOM     10  O   UNL     1      -2.608   8.391  -0.526  0.00  0.00    -0.267 OA
ATOM     11  N   UNL     1      -2.877   9.504  -2.442  0.00  0.00    -0.267 N 
ATOM     12  C   UNL     1      -3.876   8.660  -2.827  0.00  0.00    +0.099 A 
ENDROOT
BRANCH   8  13
ATOM     13  C   UNL     1      -0.577  10.033   0.382  0.00  0.00    +0.037 C 
ATOM     14  C   UNL     1      -1.258  10.226   1.548  0.00  0.00    +0.077 C 
ATOM     15  C   UNL     1      -2.590  10.688   1.754  0.00  0.00    +0.259 C 
ATOM     16  O   UNL     1      -3.305  10.978   0.811  0.00  0.00    -0.269 OA
ATOM     17  N   UNL     1      -3.028  10.792   2.996  0.00  0.00    -0.251 N 
ATOM     18  C   UNL     1      -2.233  10.475   4.043  0.00  0.00    +0.121 C 
ATOM     19  S   UNL     1      -2.585  10.540   5.717  0.00  0.00    -0.027 S 
ATOM     20  S   UNL     1      -0.723   9.969   3.234  0.00  0.00    -0.061 S 
BRANCH  17  21
ATOM     21  C   UNL     1      -4.393  11.264   3.244  0.00  0.00    +0.150 C 
BRANCH  21  22
ATOM     22  C   UNL     1      -5.334  10.088   3.274  0.00  0.00    -0.026 A 
ATOM     23  C   UNL     1      -5.940   9.659   2.108  0.00  0.00    +0.009 A 
ATOM     24  C   UNL     1      -6.804   8.580   2.131  0.00  0.00    +0.050 A 
ATOM     25  C   UNL     1      -7.064   7.925   3.324  0.00  0.00    +0.166 A 
ATOM     26  C   UNL     1      -6.453   8.357   4.499  0.00  0.00    +0.167 A 
ATOM     27  C   UNL     1      -5.588   9.439   4.468  0.00  0.00    +0.054 A 
ATOM     28  O   UNL     1      -6.864   7.556   5.527  0.00  0.00    -0.453 OA
ATOM     29  C   UNL     1      -7.416   6.383   4.900  0.00  0.00    +0.466 C 
ATOM     30  O   UNL     1      -7.860   6.855   3.614  0.00  0.00    -0.453 OA
ENDBRANCH  21  22
ENDBRANCH  17  21
ENDBRANCH   8  13
BRANCH   7  31
ATOM     31  N   UNL     1       0.124  12.123  -1.399  0.00  0.00    -0.326 N 
ATOM     32  H   UNL     1       0.649  12.014  -0.438  0.00  0.00    +0.148 HD
BRANCH  31  33
ATOM     33  C   UNL     1       0.491  13.206  -2.315  0.00  0.00    +0.072 C 
ATOM     34  C   UNL     1       1.546  12.709  -3.324  0.00  0.00    +0.022 C 
ATOM     35  C   UNL     1       2.488  13.924  -3.518  0.00  0.00    +0.002 C 
ATOM     36  C   UNL     1       2.567  14.527  -2.093  0.00  0.00    +0.002 C 
ATOM     37  C   UNL     1       1.139  14.362  -1.533  0.00  0.00    +0.022 C 
ENDBRANCH  31  33
ENDBRANCH   7  31
TORSDOF 5
