REMARK  Name = ZINC66334002
REMARK  7 active torsions:
REMARK  status: ('A' for Active; 'I' for Inactive)
REMARK    1  A    between atoms: C_1  and  C_2
REMARK    2  A    between atoms: C_2  and  C_3
REMARK    3  A    between atoms: C_2  and  C_4
REMARK    4  A    between atoms: C_2  and  C_5
REMARK    5  A    between atoms: C_5  and  N_6
REMARK    6  A    between atoms: C_7  and  C_9
REMARK    7  A    between atoms: C_21  and  C_23
REMARK                            x       y       z     vdW  Elec       q    Type
REMARK                         _______ _______ _______ _____ _____    ______ ____
ROOT
ATOM      1  C   UNL     1       3.845   0.064  -2.674  0.00  0.00    +0.163 C 
ATOM      2  C   UNL     1       3.680   1.465  -3.324  0.00  0.00    +0.037 C 
ATOM      3  C   UNL     1       4.277   1.235  -4.721  0.00  0.00    +0.012 C 
ATOM      4  C   UNL     1       4.836   2.475  -5.399  0.00  0.00    +0.005 C 
ATOM      5  C   UNL     1       5.495   2.020  -6.710  0.00  0.00    +0.000 C 
ATOM      6  C   UNL     1       6.593   0.991  -6.457  0.00  0.00    +0.002 C 
ATOM      7  C   UNL     1       6.062  -0.207  -5.650  0.00  0.00    +0.023 C 
ATOM      8  C   UNL     1       5.479   0.320  -4.360  0.00  0.00    +0.080 C 
ATOM      9  N   UNL     1       4.928  -0.634  -3.406  0.00  0.00    -0.283 N 
ATOM     10  C   UNL     1       5.326  -1.909  -3.222  0.00  0.00    +0.247 C 
ATOM     11  O   UNL     1       6.162  -2.397  -3.958  0.00  0.00    -0.270 OA
ENDROOT
BRANCH  10  12
ATOM     12  C   UNL     1       4.745  -2.714  -2.127  0.00  0.00    +0.037 A 
ATOM     13  C   UNL     1       3.928  -2.110  -1.170  0.00  0.00    +0.013 A 
ATOM     14  C   UNL     1       3.389  -2.867  -0.151  0.00  0.00    +0.001 A 
ATOM     15  C   UNL     1       3.657  -4.223  -0.075  0.00  0.00    +0.000 A 
ATOM     16  C   UNL     1       4.466  -4.828  -1.021  0.00  0.00    +0.001 A 
ATOM     17  C   UNL     1       5.006  -4.083  -2.049  0.00  0.00    +0.013 A 
ENDBRANCH  10  12
BRANCH   1  19
ATOM     18  N   UNL     1       1.549  -0.484  -1.935  0.00  0.00    -0.313 N 
ATOM     19  C   UNL     1       2.559  -0.713  -2.796  0.00  0.00    +0.234 C 
ATOM     20  O   UNL     1       2.434  -1.544  -3.671  0.00  0.00    -0.274 OA
ATOM     21  H   UNL     1       1.649   0.181  -1.235  0.00  0.00    +0.149 HD
BRANCH  18  22
ATOM     22  C   UNL     1       0.299  -1.239  -2.054  0.00  0.00    +0.110 C 
BRANCH  22  24
ATOM     23  C   UNL     1      -0.964   0.705  -1.121  0.00  0.00    +0.012 C 
ATOM     24  C   UNL     1      -0.675  -0.789  -0.962  0.00  0.00    -0.022 C 
ATOM     25  C   UNL     1      -0.053  -1.045   0.412  0.00  0.00    +0.012 C 
ATOM     26  C   UNL     1      -1.980  -1.578  -1.087  0.00  0.00    +0.012 C 
ENDBRANCH  22  24
ENDBRANCH  18  22
ENDBRANCH   1  19
TORSDOF 4
