REMARK  Name = ZINC64237575
REMARK  8 active torsions:
REMARK  status: ('A' for Active; 'I' for Inactive)
REMARK    1  A    between atoms: C_1  and  C_2
REMARK    2  A    between atoms: C_5  and  C_8
REMARK    3  A    between atoms: C_8  and  C_9
REMARK    4  A    between atoms: C_8  and  N_24
REMARK    5  A    between atoms: C_9  and  N_10
REMARK    6  A    between atoms: C_19  and  C_21
REMARK    7  A    between atoms: C_21  and  C_22
REMARK    8  A    between atoms: C_21  and  C_23
REMARK                            x       y       z     vdW  Elec       q    Type
REMARK                         _______ _______ _______ _____ _____    ______ ____
ROOT
ATOM      1  C   UNL     1       1.086  -4.902  -0.228  0.00  0.00    +0.095 C 
ENDROOT
BRANCH   1   2
ATOM      2  N   UNL     1       1.008  -6.338   0.053  0.00  0.00    -0.300 N 
ATOM      3  C   UNL     1       2.124  -7.024   0.369  0.00  0.00    +0.302 C 
ATOM      4  O   UNL     1       3.208  -6.474   0.330  0.00  0.00    -0.253 OA
ATOM      5  N   UNL     1       2.039  -8.320   0.728  0.00  0.00    -0.283 N 
ATOM      6  C   UNL     1       3.230  -9.049   1.187  0.00  0.00    +0.128 C 
ATOM      7  C   UNL     1       2.935  -9.648   2.568  0.00  0.00    +0.127 C 
ATOM      8  N   UNL     1       1.650 -10.358   2.507  0.00  0.00    -0.298 N 
ATOM      9  C   UNL     1       0.460  -9.630   2.047  0.00  0.00    +0.127 C 
ATOM     10  C   UNL     1       0.753  -9.029   0.672  0.00  0.00    +0.128 C 
ATOM     11  C   UNL     1       1.565 -11.655   2.866  0.00  0.00    +0.218 C 
ATOM     12  O   UNL     1       0.520 -12.255   2.728  0.00  0.00    -0.275 OA
ATOM     13  H   UNL     1       0.153  -6.794   0.012  0.00  0.00    +0.150 HD
BRANCH  11  14
ATOM     14  C   UNL     1       2.769 -12.359   3.438  0.00  0.00    +0.069 C 
ATOM     15  C   UNL     1       3.098 -11.771   4.811  0.00  0.00    +0.017 C 
ATOM     16  C   UNL     1       2.466 -13.852   3.581  0.00  0.00    +0.017 C 
ENDBRANCH  11  14
ENDBRANCH   1   2
BRANCH   1  17
ATOM     17  C   UNL     1      -0.324  -4.346  -0.435  0.00  0.00    -0.020 C 
BRANCH  17  22
ATOM     18  C   UNL     1      -2.660  -6.719  -5.158  0.00  0.00    +0.044 C 
ATOM     19  C   UNL     1      -2.051  -6.100  -3.926  0.00  0.00    -0.050 A 
ATOM     20  C   UNL     1      -2.385  -6.580  -2.674  0.00  0.00    +0.003 A 
ATOM     21  C   UNL     1      -1.826  -6.012  -1.544  0.00  0.00    +0.002 A 
ATOM     22  C   UNL     1      -0.932  -4.965  -1.667  0.00  0.00    -0.059 A 
ATOM     23  C   UNL     1      -0.597  -4.486  -2.919  0.00  0.00    +0.002 A 
ATOM     24  C   UNL     1      -1.153  -5.056  -4.049  0.00  0.00    +0.003 A 
ENDBRANCH  17  22
BRANCH  17  25
ATOM     25  N   UNL     1      -0.255  -2.888  -0.603  0.00  0.00    +0.385 N 
ATOM     26  C   UNL     1      -1.623  -2.310  -0.624  0.00  0.00    -0.078 C 
ATOM     27  C   UNL     1      -1.388  -0.828  -0.238  0.00  0.00    -0.020 C 
ATOM     28  C   UNL     1      -0.264  -0.920   0.820  0.00  0.00    -0.020 C 
ATOM     29  C   UNL     1       0.425  -2.272   0.557  0.00  0.00    -0.078 C 
ATOM     30  H   UNL     1       0.233  -2.658  -1.455  0.00  0.00    -0.081 HD
ENDBRANCH  17  25
ENDBRANCH   1  17
TORSDOF 5
