REMARK  Name = ZINC05605756
REMARK  9 active torsions:
REMARK  status: ('A' for Active; 'I' for Inactive)
REMARK    1  A    between atoms: C_1  and  C_2
REMARK    2  A    between atoms: C_2  and  C_3
REMARK    3  A    between atoms: C_3  and  C_4
REMARK    4  A    between atoms: C_7  and  S_10
REMARK    5  A    between atoms: N_8  and  N_9
REMARK    6  A    between atoms: S_10  and  C_11
REMARK    7  A    between atoms: C_11  and  C_12
REMARK    8  A    between atoms: N_14  and  C_15
REMARK    9  A    between atoms: C_20  and  O_21
REMARK                            x       y       z     vdW  Elec       q    Type
REMARK                         _______ _______ _______ _____ _____    ______ ____
ROOT
ATOM      1  C   UNL     1       0.146   0.105  -4.884  0.00  0.00    +0.173 C 
ENDROOT
BRANCH   1   2
ATOM      2  C   UNL     1       0.061  -0.657  -3.587  0.00  0.00    +0.228 C 
ATOM      3  O   UNL     1       0.078  -1.870  -3.594  0.00  0.00    -0.275 OA
ATOM      4  N   UNL     1      -0.033   0.008  -2.418  0.00  0.00    -0.282 N 
ATOM      5  H   UNL     1      -0.111   0.975  -2.416  0.00  0.00    +0.155 HD
BRANCH   4   6
ATOM      6  C   UNL     1      -0.017  -0.697  -1.208  0.00  0.00    +0.077 A 
ATOM      7  C   UNL     1      -0.603  -1.951  -1.126  0.00  0.00    +0.047 A 
ATOM      8  C   UNL     1      -0.592  -2.642   0.072  0.00  0.00    +0.043 A 
ATOM      9  C   UNL     1       0.008  -2.087   1.189  0.00  0.00    +0.023 A 
ATOM     10  C   UNL     1       0.598  -0.839   1.112  0.00  0.00    +0.049 A 
ATOM     11  C   UNL     1       0.591  -0.141  -0.084  0.00  0.00    +0.138 A 
ATOM     12 CL   UNL     1      -1.331  -4.210   0.175  0.00  0.00    -0.083 Cl
BRANCH  11  13
ATOM     13  O   UNL     1       1.171   1.087  -0.160  0.00  0.00    -0.505 OA
ATOM     14  H   UNL     1       2.106   1.065  -0.407  0.00  0.00    +0.292 HD
ENDBRANCH  11  13
ENDBRANCH   4   6
ENDBRANCH   1   2
BRANCH   1  15
ATOM     15  S   UNL     1       0.262  -1.061  -6.263  0.00  0.00    -0.075 S 
BRANCH  15  19
ATOM     16  C   UNL     1       0.479   0.939  -9.605  0.00  0.00    +0.151 A 
ATOM     17  N   UNL     1       0.401   1.887  -8.715  0.00  0.00    -0.132 NA
ATOM     18  N   UNL     1       0.317   1.379  -7.537  0.00  0.00    -0.121 NA
ATOM     19  C   UNL     1       0.346   0.069  -7.613  0.00  0.00    +0.209 A 
ATOM     20  N   UNL     1       0.447  -0.253  -8.936  0.00  0.00    -0.228 N 
BRANCH  20  21
ATOM     21  N   UNL     1       0.503  -1.505  -9.478  0.00  0.00    -0.295 N 
ATOM     22  H   UNL     1      -0.421  -1.850  -9.690  0.00  0.00    +0.163 HD
ATOM     23  H   UNL     1       1.091  -1.518 -10.298  0.00  0.00    +0.163 HD
ENDBRANCH  20  21
BRANCH  16  24
ATOM     24  C   UNL     1       0.585   1.123 -11.097  0.00  0.00    +0.078 C 
BRANCH  24  26
ATOM     25  C   UNL     1      -0.710   1.351 -13.222  0.00  0.00    +0.004 C 
ATOM     26  C   UNL     1      -0.818   1.165 -11.707  0.00  0.00    +0.004 C 
ENDBRANCH  24  26
ENDBRANCH  16  24
ENDBRANCH  15  19
ENDBRANCH   1  15
TORSDOF 8
