REMARK  Name = ZINC36608137
REMARK  8 active torsions:
REMARK  status: ('A' for Active; 'I' for Inactive)
REMARK    1  A    between atoms: C_4  and  N_7
REMARK    2  A    between atoms: N_7  and  C_8
REMARK    3  A    between atoms: C_8  and  C_10
REMARK    4  A    between atoms: C_8  and  C_19
REMARK    5  A    between atoms: C_13  and  N_16
REMARK    6  A    between atoms: N_21  and  C_22
REMARK    7  A    between atoms: C_28  and  C_30
REMARK    8  A    between atoms: C_35  and  O_36
REMARK                            x       y       z     vdW  Elec       q    Type
REMARK                         _______ _______ _______ _____ _____    ______ ____
ROOT
ATOM      1  C   UNL     1       5.247  -2.562  -0.629  0.00  0.00    +0.197 C 
ENDROOT
BRANCH   1   2
ATOM      2  C   UNL     1       5.778  -2.945  -1.986  0.00  0.00    -0.018 A 
ATOM      3  C   UNL     1       5.014  -2.719  -3.116  0.00  0.00    +0.008 A 
ATOM      4  C   UNL     1       5.500  -3.069  -4.361  0.00  0.00    +0.033 A 
ATOM      5  C   UNL     1       6.751  -3.646  -4.477  0.00  0.00    +0.126 A 
ATOM      6  C   UNL     1       7.516  -3.872  -3.348  0.00  0.00    +0.033 A 
ATOM      7  C   UNL     1       7.031  -3.517  -2.103  0.00  0.00    +0.008 A 
BRANCH   5   8
ATOM      8  N   UNL     1       7.271  -4.023  -5.811  0.00  0.00    +0.056 N 
ATOM      9  O   UNL     1       6.603  -3.826  -6.799  0.00  0.00    -0.126 OA
ATOM     10  O   UNL     1       8.366  -4.527  -5.912  0.00  0.00    -0.126 OA
ENDBRANCH   5   8
ENDBRANCH   1   2
BRANCH   1  11
ATOM     11  C   UNL     1       3.846  -3.093  -0.469  0.00  0.00    +0.239 C 
ATOM     12  O   UNL     1       2.927  -2.327  -0.270  0.00  0.00    -0.273 OA
ATOM     13  N   UNL     1       3.614  -4.418  -0.548  0.00  0.00    -0.311 N 
ATOM     14  H   UNL     1       4.349  -5.031  -0.707  0.00  0.00    +0.149 HD
BRANCH  13  15
ATOM     15  C   UNL     1       2.251  -4.934  -0.393  0.00  0.00    +0.073 C 
ATOM     16  C   UNL     1       1.941  -5.116   1.094  0.00  0.00    +0.022 C 
ATOM     17  C   UNL     1       0.518  -5.654   1.256  0.00  0.00    +0.002 C 
ATOM     18  C   UNL     1       0.398  -7.002   0.541  0.00  0.00    +0.000 C 
ATOM     19  C   UNL     1       0.708  -6.819  -0.947  0.00  0.00    +0.002 C 
ATOM     20  C   UNL     1       2.131  -6.281  -1.108  0.00  0.00    +0.022 C 
ENDBRANCH  13  15
ENDBRANCH   1  11
BRANCH   1  21
ATOM     21  N   UNL     1       5.235  -1.103  -0.503  0.00  0.00    -0.251 N 
ATOM     22  C   UNL     1       5.244  -0.532   0.718  0.00  0.00    +0.255 C 
ATOM     23  O   UNL     1       4.862   0.614   0.856  0.00  0.00    -0.269 OA
BRANCH  21  27
ATOM     24  C   UNL     1       5.169   1.282  -3.917  0.00  0.00    +0.000 A 
ATOM     25  C   UNL     1       4.027   0.611  -3.523  0.00  0.00    +0.002 A 
ATOM     26  C   UNL     1       4.045  -0.181  -2.391  0.00  0.00    +0.023 A 
ATOM     27  C   UNL     1       5.213  -0.302  -1.649  0.00  0.00    +0.038 A 
ATOM     28  C   UNL     1       6.359   0.373  -2.048  0.00  0.00    +0.023 A 
ATOM     29  C   UNL     1       6.333   1.164  -3.181  0.00  0.00    +0.002 A 
ENDBRANCH  21  27
BRANCH  22  30
ATOM     30  C   UNL     1       5.718  -1.297   1.887  0.00  0.00    +0.079 A 
ATOM     31  C   UNL     1       5.287  -2.610   2.088  0.00  0.00    +0.017 A 
ATOM     32  C   UNL     1       5.734  -3.320   3.182  0.00  0.00    +0.001 A 
ATOM     33  C   UNL     1       6.609  -2.736   4.084  0.00  0.00    +0.004 A 
ATOM     34  C   UNL     1       7.043  -1.439   3.896  0.00  0.00    +0.046 A 
ATOM     35  C   UNL     1       6.608  -0.712   2.798  0.00  0.00    +0.129 A 
BRANCH  35  36
ATOM     36  O   UNL     1       7.039   0.560   2.609  0.00  0.00    -0.506 OA
ATOM     37  H   UNL     1       6.481   1.230   3.027  0.00  0.00    +0.292 HD
ENDBRANCH  35  36
ENDBRANCH  22  30
ENDBRANCH   1  21
TORSDOF 8
