REMARK  Name = ZINC17206217
REMARK  6 active torsions:
REMARK  status: ('A' for Active; 'I' for Inactive)
REMARK    1  A    between atoms: C_4  and  S_7
REMARK    2  A    between atoms: S_7  and  N_10
REMARK    3  A    between atoms: C_16  and  C_18
REMARK    4  A    between atoms: C_18  and  C_19
REMARK    5  A    between atoms: C_19  and  C_20
REMARK    6  A    between atoms: C_26  and  C_28
REMARK                            x       y       z     vdW  Elec       q    Type
REMARK                         _______ _______ _______ _____ _____    ______ ____
ROOT
ATOM      1  N   UNL     1       8.208   3.136   1.133  0.00  0.00    -0.174 NA
ATOM      2  C   UNL     1       8.213   1.667   1.126  0.00  0.00    +0.128 C 
ATOM      3  C   UNL     1       7.374   1.180  -0.062  0.00  0.00    +0.125 C 
ATOM      4  N   UNL     1       6.084   1.884  -0.046  0.00  0.00    -0.299 N 
ATOM      5  C   UNL     1       6.080   3.353  -0.044  0.00  0.00    +0.125 C 
ATOM      6  C   UNL     1       6.918   3.840   1.150  0.00  0.00    +0.128 C 
ATOM      7  C   UNL     1       4.926   1.194  -0.039  0.00  0.00    +0.216 C 
ATOM      8  O   UNL     1       4.943  -0.018  -0.045  0.00  0.00    -0.276 OA
ENDROOT
BRANCH   1   9
ATOM      9  S   UNL     1       9.631   3.984   1.125  0.00  0.00    +0.061 S 
ATOM     10  O   UNL     1       9.348   5.259   1.684  0.00  0.00    -0.153 OA
ATOM     11  O   UNL     1      10.622   3.119   1.662  0.00  0.00    -0.153 OA
BRANCH   9  15
ATOM     12  C   UNL     1      10.741   4.690  -3.207  0.00  0.00    +0.000 A 
ATOM     13  C   UNL     1       9.959   5.611  -2.535  0.00  0.00    +0.002 A 
ATOM     14  C   UNL     1       9.620   5.395  -1.212  0.00  0.00    +0.028 A 
ATOM     15  C   UNL     1      10.063   4.259  -0.561  0.00  0.00    +0.105 A 
ATOM     16  C   UNL     1      10.850   3.341  -1.232  0.00  0.00    +0.028 A 
ATOM     17  C   UNL     1      11.184   3.554  -2.556  0.00  0.00    +0.002 A 
ENDBRANCH   9  15
ENDBRANCH   1   9
BRANCH   7  18
ATOM     18  C   UNL     1       3.611   1.930  -0.022  0.00  0.00    +0.105 C 
BRANCH  18  19
ATOM     19  C   UNL     1       2.462   0.920  -0.017  0.00  0.00    +0.105 C 
BRANCH  19  20
ATOM     20  C   UNL     1       1.147   1.655   0.000  0.00  0.00    +0.219 C 
ATOM     21  O   UNL     1       1.130   2.868   0.007  0.00  0.00    -0.275 OA
ATOM     22  N   UNL     1      -0.011   0.966   0.007  0.00  0.00    -0.263 N 
ATOM     23  C   UNL     1      -1.225   1.645   0.017  0.00  0.00    +0.188 A 
ATOM     24  N   UNL     1      -1.463   2.945   0.025  0.00  0.00    -0.126 NA
ATOM     25  N   UNL     1      -2.637   3.408   0.033  0.00  0.00    -0.144 NA
ATOM     26  C   UNL     1      -3.678   2.600   0.034  0.00  0.00    +0.107 A 
ATOM     27  S   UNL     1      -2.847   1.016   0.014  0.00  0.00    -0.035 S 
ATOM     28  H   UNL     1       0.004  -0.134   0.006  0.00  0.00    +0.157 HD
BRANCH  26  29
ATOM     29  C   UNL     1      -5.151   2.919   0.042  0.00  0.00    +0.047 C 
ATOM     30  C   UNL     1      -5.502   3.739  -1.202  0.00  0.00    +0.010 C 
ATOM     31  C   UNL     1      -6.997   4.063  -1.193  0.00  0.00    +0.001 C 
ATOM     32  C   UNL     1      -7.337   4.870   0.061  0.00  0.00    +0.000 C 
ATOM     33  C   UNL     1      -6.986   4.050   1.305  0.00  0.00    +0.001 C 
ATOM     34  C   UNL     1      -5.491   3.726   1.297  0.00  0.00    +0.010 C 
ENDBRANCH  26  29
ENDBRANCH  19  20
ENDBRANCH  18  19
ENDBRANCH   7  18
TORSDOF 6
