REMARK  Name = ZINC64951215
REMARK  9 active torsions:
REMARK  status: ('A' for Active; 'I' for Inactive)
REMARK    1  A    between atoms: C_1  and  C_2
REMARK    2  A    between atoms: C_3  and  C_11
REMARK    3  A    between atoms: C_8  and  C_10
REMARK    4  A    between atoms: C_11  and  C_12
REMARK    5  A    between atoms: C_12  and  C_13
REMARK    6  A    between atoms: N_15  and  C_16
REMARK    7  A    between atoms: C_16  and  C_17
REMARK    8  A    between atoms: C_16  and  C_18
REMARK    9  A    between atoms: C_16  and  C_19
REMARK                            x       y       z     vdW  Elec       q    Type
REMARK                         _______ _______ _______ _____ _____    ______ ____
ROOT
ATOM      1  C   UNL     1      -4.367   0.814  -1.403  0.00  0.00    +0.214 C 
ATOM      2  O   UNL     1      -4.886   1.111  -0.349  0.00  0.00    -0.276 OA
ATOM      3  N   UNL     1      -4.976   1.121  -2.566  0.00  0.00    -0.306 N 
ATOM      4  H   UNL     1      -4.561   0.883  -3.409  0.00  0.00    +0.150 HD
ENDROOT
BRANCH   3   5
ATOM      5  C   UNL     1      -6.267   1.814  -2.555  0.00  0.00    +0.054 C 
ATOM      6  C   UNL     1      -7.304   0.949  -1.835  0.00  0.00    +0.036 C 
ATOM      7  C   UNL     1      -6.122   3.150  -1.824  0.00  0.00    +0.036 C 
BRANCH   5   8
ATOM      8  C   UNL     1      -6.716   2.062  -3.972  0.00  0.00    -0.023 A 
ATOM      9  C   UNL     1      -8.060   2.222  -4.253  0.00  0.00    +0.007 A 
ATOM     10  C   UNL     1      -8.473   2.449  -5.552  0.00  0.00    +0.022 A 
ATOM     11  C   UNL     1      -7.541   2.517  -6.572  0.00  0.00    +0.059 A 
ATOM     12  C   UNL     1      -6.195   2.357  -6.291  0.00  0.00    +0.060 A 
ATOM     13  C   UNL     1      -5.783   2.135  -4.989  0.00  0.00    +0.027 A 
ATOM     14 CL   UNL     1      -5.024   2.441  -7.570  0.00  0.00    -0.082 Cl
ATOM     15 CL   UNL     1      -8.059   2.802  -8.204  0.00  0.00    -0.082 Cl
ENDBRANCH   5   8
ENDBRANCH   3   5
BRANCH   1  16
ATOM     16  C   UNL     1      -3.039   0.101  -1.415  0.00  0.00    +0.100 C 
BRANCH  16  17
ATOM     17  C   UNL     1      -2.570  -0.126   0.024  0.00  0.00    +0.051 C 
BRANCH  17  20
ATOM     18  C   UNL     1      -0.104   1.364   0.191  0.00  0.00    +0.066 C 
ATOM     19  C   UNL     1      -0.076  -0.139   0.092  0.00  0.00    +0.049 A 
ATOM     20  C   UNL     1      -1.242  -0.839   0.013  0.00  0.00    +0.038 A 
ATOM     21  C   UNL     1      -1.181  -2.245  -0.079  0.00  0.00    +0.255 A 
ATOM     22  O   UNL     1      -2.201  -2.910  -0.152  0.00  0.00    -0.268 OA
ATOM     23  N   UNL     1       0.032  -2.840  -0.085  0.00  0.00    -0.311 N 
ATOM     24  H   UNL     1       0.099  -3.805  -0.148  0.00  0.00    +0.170 HD
ATOM     25  C   UNL     1       1.148  -2.090  -0.004  0.00  0.00    +0.107 A 
ATOM     26  N   UNL     1       1.091  -0.787   0.076  0.00  0.00    -0.239 NA
ATOM     27  C   UNL     1       2.494  -2.769  -0.012  0.00  0.00    +0.086 C 
ENDBRANCH  17  20
ENDBRANCH  16  17
ENDBRANCH   1  16
TORSDOF 5
