REMARK  Name = ZINC63589416
REMARK  10 active torsions:
REMARK  status: ('A' for Active; 'I' for Inactive)
REMARK    1  A    between atoms: C_1  and  O_2
REMARK    2  A    between atoms: O_2  and  C_3
REMARK    3  A    between atoms: C_5  and  N_11
REMARK    4  A    between atoms: C_7  and  O_9
REMARK    5  A    between atoms: O_9  and  C_10
REMARK    6  A    between atoms: N_13  and  C_14
REMARK    7  A    between atoms: C_14  and  C_16
REMARK    8  A    between atoms: N_23  and  C_24
REMARK    9  A    between atoms: C_24  and  C_25
REMARK   10  A    between atoms: C_25  and  C_26
REMARK                            x       y       z     vdW  Elec       q    Type
REMARK                         _______ _______ _______ _____ _____    ______ ____
ROOT
ATOM      1  N   UNL     1       2.119  -3.705  -2.707  0.00  0.00    -0.328 N 
ATOM      2  C   UNL     1       2.518  -4.402  -3.811  0.00  0.00    +0.194 C 
ATOM      3  N   UNL     1       2.746  -5.704  -3.726  0.00  0.00    -0.143 NA
ATOM      4  N   UNL     1       2.683  -3.757  -5.002  0.00  0.00    -0.357 N 
ATOM      5  H   UNL     1       2.035  -2.740  -2.747  0.00  0.00    +0.169 HD
ATOM      6  H   UNL     1       2.877  -4.264  -5.805  0.00  0.00    +0.162 HD
ENDROOT
BRANCH   1   9
ATOM      7  C   UNL     1       1.827  -4.465   0.883  0.00  0.00    +0.126 A 
ATOM      8  C   UNL     1       2.114  -3.792  -0.294  0.00  0.00    +0.071 A 
ATOM      9  C   UNL     1       1.831  -4.384  -1.518  0.00  0.00    +0.049 A 
ATOM     10  C   UNL     1       1.262  -5.649  -1.562  0.00  0.00    +0.071 A 
ATOM     11  C   UNL     1       0.976  -6.321  -0.383  0.00  0.00    +0.126 A 
ATOM     12  C   UNL     1       1.264  -5.732   0.839  0.00  0.00    +0.091 A 
BRANCH   7  14
ATOM     13  C   UNL     1       1.789  -4.639   3.254  0.00  0.00    +0.277 C 
ATOM     14  O   UNL     1       2.104  -3.886   2.081  0.00  0.00    -0.495 OA
ENDBRANCH   7  14
BRANCH  11  15
ATOM     15  O   UNL     1       0.418  -7.560  -0.425  0.00  0.00    -0.495 OA
ATOM     16  C   UNL     1       0.049  -8.148   0.824  0.00  0.00    +0.277 C 
ENDBRANCH  11  15
ENDBRANCH   1   9
BRANCH   3  17
ATOM     17  C   UNL     1       3.386  -6.338  -4.717  0.00  0.00    +0.270 C 
ATOM     18  O   UNL     1       3.858  -5.702  -5.643  0.00  0.00    -0.268 OA
BRANCH  17  19
ATOM     19  C   UNL     1       3.521  -7.812  -4.688  0.00  0.00    +0.039 A 
ATOM     20  C   UNL     1       2.976  -8.544  -3.632  0.00  0.00    +0.014 A 
ATOM     21  C   UNL     1       3.104  -9.917  -3.610  0.00  0.00    +0.021 A 
ATOM     22  C   UNL     1       3.771 -10.569  -4.633  0.00  0.00    +0.041 A 
ATOM     23  C   UNL     1       4.314  -9.848  -5.684  0.00  0.00    +0.021 A 
ATOM     24  C   UNL     1       4.187  -8.475  -5.719  0.00  0.00    +0.014 A 
ATOM     25 CL   UNL     1       3.928 -12.298  -4.599  0.00  0.00    -0.084 Cl
ENDBRANCH  17  19
ENDBRANCH   3  17
BRANCH   4  26
ATOM     26  C   UNL     1       2.568  -2.298  -5.066  0.00  0.00    +0.120 C 
BRANCH  26  27
ATOM     27  C   UNL     1       2.677  -1.842  -6.523  0.00  0.00    +0.054 C 
BRANCH  27  28
ATOM     28  C   UNL     1       2.680  -0.336  -6.579  0.00  0.00    -0.040 C 
ATOM     29  C   UNL     1       3.762   0.475  -6.588  0.00  0.00    -0.001 A 
ATOM     30  C   UNL     1       5.205   0.209  -6.550  0.00  0.00    +0.010 A 
ATOM     31  C   UNL     1       6.066   1.252  -6.571  0.00  0.00    +0.001 A 
ATOM     32  C   UNL     1       5.616   2.578  -6.629  0.00  0.00    +0.002 A 
ATOM     33  C   UNL     1       4.306   2.902  -6.667  0.00  0.00    +0.026 A 
ATOM     34  C   UNL     1       3.313   1.885  -6.650  0.00  0.00    +0.043 A 
ATOM     35  N   UNL     1       2.003   1.942  -6.677  0.00  0.00    -0.380 N 
ATOM     36  C   UNL     1       1.474   0.574  -6.642  0.00  0.00    +0.144 C 
ATOM     37  H   UNL     1       1.473   2.753  -6.718  0.00  0.00    +0.160 HD
ENDBRANCH  27  28
ENDBRANCH  26  27
ENDBRANCH   4  26
TORSDOF 8
