REMARK  Name = ZINC06082962
REMARK  12 active torsions:
REMARK  status: ('A' for Active; 'I' for Inactive)
REMARK    1  A    between atoms: C_1  and  C_2
REMARK    2  A    between atoms: C_6  and  C_29
REMARK    3  A    between atoms: C_7  and  O_8
REMARK    4  A    between atoms: O_8  and  C_9
REMARK    5  A    between atoms: C_9  and  C_10
REMARK    6  A    between atoms: C_10  and  C_12
REMARK    7  A    between atoms: C_10  and  O_28
REMARK    8  A    between atoms: C_12  and  N_13
REMARK    9  A    between atoms: N_13  and  C_14
REMARK   10  A    between atoms: N_13  and  C_22
REMARK   11  A    between atoms: C_14  and  C_15
REMARK   12  A    between atoms: C_20  and  O_21
REMARK                            x       y       z     vdW  Elec       q    Type
REMARK                         _______ _______ _______ _____ _____    ______ ____
ROOT
ATOM      1  N   UNL     1      -2.349   2.240   6.081  0.00  0.00    +0.386 N 
ATOM      2  H   UNL     1      -2.238   3.241   6.009  0.00  0.00    -0.081 HD
ENDROOT
BRANCH   1   3
ATOM      3  C   UNL     1      -1.291   1.692   6.941  0.00  0.00    -0.068 C 
ATOM      4  C   UNL     1      -1.121   2.584   8.172  0.00  0.00    -0.015 C 
ATOM      5  C   UNL     1      -0.019   2.012   9.067  0.00  0.00    -0.002 C 
ATOM      6  C   UNL     1      -0.404   0.599   9.510  0.00  0.00    -0.000 C 
ATOM      7  C   UNL     1      -0.574  -0.293   8.279  0.00  0.00    -0.002 C 
ATOM      8  C   UNL     1      -1.676   0.279   7.384  0.00  0.00    -0.015 C 
ENDBRANCH   1   3
BRANCH   1   9
ATOM      9  C   UNL     1      -2.254   1.640   4.744  0.00  0.00    -0.043 C 
BRANCH   9  10
ATOM     10  C   UNL     1      -0.961   2.102   4.068  0.00  0.00    +0.135 C 
BRANCH  10  11
ATOM     11  O   UNL     1      -1.005   3.517   3.873  0.00  0.00    -0.390 OA
ATOM     12  H   UNL     1      -1.739   3.815   3.319  0.00  0.00    +0.210 HD
ENDBRANCH  10  11
BRANCH  10  13
ATOM     13  C   UNL     1      -0.817   1.405   2.713  0.00  0.00    +0.258 C 
BRANCH  13  14
ATOM     14  O   UNL     1       0.444   1.747   2.134  0.00  0.00    -0.489 OA
BRANCH  14  21
ATOM     15  C   UNL     1      -0.333   3.205  -0.157  0.00  0.00    +0.047 C 
ATOM     16  C   UNL     1       0.375   1.877  -0.240  0.00  0.00    -0.009 A 
ATOM     17  C   UNL     1       0.675   1.329  -1.472  0.00  0.00    +0.007 A 
ATOM     18  C   UNL     1       1.325   0.112  -1.549  0.00  0.00    +0.001 A 
ATOM     19  C   UNL     1       1.676  -0.561  -0.394  0.00  0.00    +0.007 A 
ATOM     20  C   UNL     1       1.379  -0.018   0.841  0.00  0.00    -0.009 A 
ATOM     21  C   UNL     1       0.732   1.207   0.921  0.00  0.00    +0.126 A 
ATOM     22  C   UNL     1       1.763  -0.751   2.100  0.00  0.00    +0.047 C 
ENDBRANCH  14  21
ENDBRANCH  13  14
ENDBRANCH  10  13
ENDBRANCH   9  10
ENDBRANCH   1   9
BRANCH   1  23
ATOM     23  C   UNL     1      -3.662   1.933   6.664  0.00  0.00    -0.039 C 
BRANCH  23  24
ATOM     24  C   UNL     1      -3.834   2.703   7.948  0.00  0.00    -0.022 A 
ATOM     25  C   UNL     1      -3.912   2.030   9.152  0.00  0.00    +0.005 A 
ATOM     26  C   UNL     1      -4.070   2.735  10.331  0.00  0.00    +0.000 A 
ATOM     27  C   UNL     1      -4.151   4.115  10.307  0.00  0.00    +0.004 A 
ATOM     28  C   UNL     1      -4.074   4.793   9.106  0.00  0.00    +0.045 A 
ATOM     29  C   UNL     1      -3.909   4.087   7.923  0.00  0.00    +0.118 A 
BRANCH  29  30
ATOM     30  O   UNL     1      -3.827   4.752   6.740  0.00  0.00    -0.507 OA
ATOM     31  H   UNL     1      -4.681   4.895   6.309  0.00  0.00    +0.292 HD
ENDBRANCH  29  30
ENDBRANCH  23  24
ENDBRANCH   1  23
TORSDOF 10
