REMARK  Name = ZINC12137335
REMARK  10 active torsions:
REMARK  status: ('A' for Active; 'I' for Inactive)
REMARK    1  A    between atoms: C_4  and  O_7
REMARK    2  A    between atoms: O_7  and  C_8
REMARK    3  A    between atoms: C_8  and  C_9
REMARK    4  A    between atoms: C_9  and  O_10
REMARK    5  A    between atoms: O_10  and  C_11
REMARK    6  A    between atoms: C_16  and  C_17
REMARK    7  A    between atoms: N_19  and  C_20
REMARK    8  A    between atoms: C_20  and  N_22
REMARK    9  A    between atoms: N_22  and  C_23
REMARK   10  A    between atoms: C_28  and  C_29
REMARK                            x       y       z     vdW  Elec       q    Type
REMARK                         _______ _______ _______ _____ _____    ______ ____
ROOT
ATOM      1  C   UNL     1       2.522   1.381  -0.474  0.00  0.00    +0.253 C 
ATOM      2  O   UNL     1       2.565   0.186  -0.691  0.00  0.00    -0.270 OA
ATOM      3  N   UNL     1       3.659   2.065  -0.236  0.00  0.00    -0.263 N 
ATOM      4  H   UNL     1       3.624   3.019  -0.063  0.00  0.00    +0.157 HD
ENDROOT
BRANCH   1  10
ATOM      5  C   UNL     1       0.040   1.376  -0.716  0.00  0.00    +0.133 A 
ATOM      6  C   UNL     1      -1.174   2.047  -0.714  0.00  0.00    +0.046 A 
ATOM      7  C   UNL     1      -1.214   3.404  -0.460  0.00  0.00    +0.004 A 
ATOM      8  C   UNL     1      -0.045   4.106  -0.216  0.00  0.00    +0.001 A 
ATOM      9  C   UNL     1       1.170   3.457  -0.219  0.00  0.00    +0.017 A 
ATOM     10  C   UNL     1       1.225   2.083  -0.469  0.00  0.00    +0.079 A 
BRANCH   5  11
ATOM     11  O   UNL     1       0.080   0.042  -0.960  0.00  0.00    -0.488 OA
BRANCH  11  12
ATOM     12  C   UNL     1      -1.167  -0.611  -1.202  0.00  0.00    +0.270 C 
BRANCH  12  13
ATOM     13  C   UNL     1      -0.923  -2.100  -1.455  0.00  0.00    +0.270 C 
BRANCH  13  14
ATOM     14  O   UNL     1      -0.403  -2.706  -0.270  0.00  0.00    -0.489 OA
BRANCH  14  18
ATOM     15  C   UNL     1       0.430  -6.743  -0.439  0.00  0.00    +0.000 A 
ATOM     16  C   UNL     1       0.657  -6.040   0.730  0.00  0.00    +0.004 A 
ATOM     17  C   UNL     1       0.379  -4.688   0.789  0.00  0.00    +0.045 A 
ATOM     18  C   UNL     1      -0.128  -4.036  -0.326  0.00  0.00    +0.121 A 
ATOM     19  C   UNL     1      -0.360  -4.744  -1.495  0.00  0.00    +0.045 A 
ATOM     20  C   UNL     1      -0.075  -6.095  -1.551  0.00  0.00    +0.004 A 
ENDBRANCH  14  18
ENDBRANCH  13  14
ENDBRANCH  12  13
ENDBRANCH  11  12
ENDBRANCH   5  11
ENDBRANCH   1  10
BRANCH   3  21
ATOM     21  C   UNL     1       4.844   1.423  -0.241  0.00  0.00    +0.141 C 
ATOM     22  S   UNL     1       4.905  -0.260  -0.547  0.00  0.00    -0.018 S 
BRANCH  21  23
ATOM     23  N   UNL     1       5.981   2.107  -0.003  0.00  0.00    -0.296 N 
ATOM     24  H   UNL     1       5.952   3.068   0.123  0.00  0.00    +0.154 HD
BRANCH  23  25
ATOM     25  C   UNL     1       7.197   1.434   0.061  0.00  0.00    +0.045 A 
ATOM     26  C   UNL     1       7.271   0.180   0.653  0.00  0.00    +0.024 A 
ATOM     27  C   UNL     1       8.477  -0.488   0.710  0.00  0.00    +0.002 A 
ATOM     28  C   UNL     1       9.624   0.089   0.189  0.00  0.00    +0.001 A 
ATOM     29  C   UNL     1       9.572   1.335  -0.397  0.00  0.00    +0.015 A 
ATOM     30  C   UNL     1       8.357   2.021  -0.468  0.00  0.00    +0.058 A 
BRANCH  30  31
ATOM     31  C   UNL     1       8.294   3.355  -1.093  0.00  0.00    +0.248 C 
ATOM     32  O   UNL     1       7.524   3.561  -2.011  0.00  0.00    -0.270 OA
ATOM     33  N   UNL     1       9.090   4.347  -0.647  0.00  0.00    -0.297 N 
ATOM     34  C   UNL     1       9.903   4.109   0.525  0.00  0.00    +0.108 C 
ATOM     35  C   UNL     1       9.114   4.487   1.797  0.00  0.00    +0.019 C 
ATOM     36  C   UNL     1       8.970   5.947   1.893  0.00  0.00    +0.002 C 
ATOM     37  C   UNL     1       8.175   6.577   0.753  0.00  0.00    +0.002 C 
ATOM     38  C   UNL     1       9.095   6.839  -0.413  0.00  0.00    +0.019 C 
ATOM     39  C   UNL     1       9.092   5.633  -1.371  0.00  0.00    +0.108 C 
ENDBRANCH  30  31
ENDBRANCH  23  25
ENDBRANCH  21  23
ENDBRANCH   3  21
TORSDOF 10
