REMARK  Name = ZINC12291246
REMARK  13 active torsions:
REMARK  status: ('A' for Active; 'I' for Inactive)
REMARK    1  A    between atoms: C_1  and  C_2
REMARK    2  A    between atoms: C_5  and  S_12
REMARK    3  A    between atoms: S_12  and  N_15
REMARK    4  A    between atoms: N_15  and  C_16
REMARK    5  A    between atoms: C_16  and  C_17
REMARK    6  A    between atoms: C_17  and  C_18
REMARK    7  A    between atoms: C_18  and  C_19
REMARK    8  A    between atoms: C_19  and  C_20
REMARK    9  A    between atoms: C_20  and  C_21
REMARK   10  A    between atoms: C_21  and  N_22
REMARK   11  A    between atoms: N_22  and  S_23
REMARK   12  A    between atoms: S_23  and  C_26
REMARK   13  A    between atoms: C_29  and  C_36
REMARK                            x       y       z     vdW  Elec       q    Type
REMARK                         _______ _______ _______ _____ _____    ______ ____
ROOT
ATOM      1  C   UNL     1       4.532   1.101   0.568  0.00  0.00    +0.001 C 
ENDROOT
BRANCH   1   2
ATOM      2  C   UNL     1       3.013   0.942   0.474  0.00  0.00    +0.017 C 
BRANCH   2   3
ATOM      3  C   UNL     1       2.374   2.303   0.191  0.00  0.00    +0.106 C 
BRANCH   3   4
ATOM      4  N   UNL     1       0.920   2.150   0.101  0.00  0.00    -0.190 NA
ATOM      5  H   UNL     1       0.531   1.269  -0.014  0.00  0.00    +0.148 HD
BRANCH   4   6
ATOM      6  S   UNL     1      -0.059   3.483   0.188  0.00  0.00    +0.059 S 
ATOM      7  O   UNL     1      -1.392   3.018   0.026  0.00  0.00    -0.153 OA
ATOM      8  O   UNL     1       0.358   4.219   1.329  0.00  0.00    -0.153 OA
BRANCH   6  13
ATOM      9  C   UNL     1       1.201   6.990  -4.596  0.00  0.00    +0.044 C 
ATOM     10  C   UNL     1       0.881   6.102  -3.421  0.00  0.00    -0.043 A 
ATOM     11  C   UNL     1       1.126   6.531  -2.152  0.00  0.00    +0.006 A 
ATOM     12  C   UNL     1       0.830   5.727  -1.053  0.00  0.00    +0.029 A 
ATOM     13  C   UNL     1       0.299   4.484  -1.217  0.00  0.00    +0.113 A 
ATOM     14  C   UNL     1       0.032   4.007  -2.511  0.00  0.00    +0.009 A 
ATOM     15  C   UNL     1       0.327   4.828  -3.629  0.00  0.00    -0.013 A 
ATOM     16  C   UNL     1       0.059   4.351  -4.924  0.00  0.00    +0.009 A 
ATOM     17  C   UNL     1      -0.477   3.111  -5.087  0.00  0.00    +0.001 A 
ATOM     18  C   UNL     1      -0.767   2.304  -3.988  0.00  0.00    +0.001 A 
ATOM     19  C   UNL     1      -0.522   2.733  -2.720  0.00  0.00    +0.010 A 
ENDBRANCH   6  13
ENDBRANCH   4   6
ENDBRANCH   3   4
ENDBRANCH   2   3
ENDBRANCH   1   2
BRANCH   1  20
ATOM     20  C   UNL     1       5.171  -0.260   0.852  0.00  0.00    +0.001 C 
BRANCH  20  21
ATOM     21  C   UNL     1       6.690  -0.101   0.946  0.00  0.00    +0.017 C 
BRANCH  21  22
ATOM     22  C   UNL     1       7.329  -1.461   1.230  0.00  0.00    +0.106 C 
BRANCH  22  23
ATOM     23  N   UNL     1       8.783  -1.309   1.320  0.00  0.00    -0.190 NA
ATOM     24  H   UNL     1       9.210  -0.514   0.964  0.00  0.00    +0.148 HD
BRANCH  23  25
ATOM     25  S   UNL     1       9.698  -2.493   2.030  0.00  0.00    +0.059 S 
ATOM     26  O   UNL     1      11.053  -2.083   1.915  0.00  0.00    -0.153 OA
ATOM     27  O   UNL     1       9.091  -2.778   3.283  0.00  0.00    -0.153 OA
BRANCH  25  28
ATOM     28  C   UNL     1       9.526  -3.944   1.045  0.00  0.00    +0.113 A 
ATOM     29  C   UNL     1       8.939  -5.058   1.564  0.00  0.00    +0.029 A 
ATOM     30  C   UNL     1       8.789  -6.212   0.798  0.00  0.00    +0.006 A 
ATOM     31  C   UNL     1       9.236  -6.264  -0.487  0.00  0.00    -0.043 A 
ATOM     32  C   UNL     1       9.852  -5.137  -1.055  0.00  0.00    -0.013 A 
ATOM     33  C   UNL     1       9.999  -3.960  -0.278  0.00  0.00    +0.009 A 
ATOM     34  C   UNL     1      10.617  -2.832  -0.846  0.00  0.00    +0.010 A 
ATOM     35  C   UNL     1      11.064  -2.885  -2.130  0.00  0.00    +0.001 A 
ATOM     36  C   UNL     1      10.919  -4.042  -2.894  0.00  0.00    +0.001 A 
ATOM     37  C   UNL     1      10.327  -5.153  -2.377  0.00  0.00    +0.009 A 
ATOM     38  C   UNL     1       9.070  -7.525  -1.296  0.00  0.00    +0.044 C 
ENDBRANCH  25  28
ENDBRANCH  23  25
ENDBRANCH  22  23
ENDBRANCH  21  22
ENDBRANCH  20  21
ENDBRANCH   1  20
TORSDOF 11
