REMARK  Name = ZINC09290978
REMARK  5 active torsions:
REMARK  status: ('A' for Active; 'I' for Inactive)
REMARK    1  A    between atoms: C_4  and  N_7
REMARK    2  A    between atoms: C_11  and  C_12
REMARK    3  A    between atoms: C_19  and  C_20
REMARK    4  A    between atoms: C_19  and  C_22
REMARK    5  A    between atoms: N_24  and  C_25
REMARK                            x       y       z     vdW  Elec       q    Type
REMARK                         _______ _______ _______ _____ _____    ______ ____
ROOT
ATOM      1  N   UNL     1       5.844  -0.527   0.447  0.00  0.00    -0.269 N 
ATOM      2  C   UNL     1       7.146  -0.455   0.212  0.00  0.00    +0.270 A 
ATOM      3  O   UNL     1       7.779   0.573   0.372  0.00  0.00    -0.266 OA
ATOM      4  C   UNL     1       7.758  -1.662  -0.240  0.00  0.00    +0.080 A 
ATOM      5  C   UNL     1       9.062  -1.902  -0.562  0.00  0.00    +0.035 C 
ATOM      6  S   UNL     1       6.362  -2.773  -0.274  0.00  0.00    -0.064 S 
ATOM      7  C   UNL     1       5.176  -1.707   0.258  0.00  0.00    +0.111 A 
ATOM      8  C   UNL     1       3.816  -1.966   0.460  0.00  0.00    +0.144 C 
ENDROOT
BRANCH   1  12
ATOM      9  C   UNL     1       3.783   2.842   1.779  0.00  0.00    +0.000 A 
ATOM     10  C   UNL     1       4.490   2.065   2.679  0.00  0.00    +0.002 A 
ATOM     11  C   UNL     1       5.174   0.948   2.240  0.00  0.00    +0.026 A 
ATOM     12  C   UNL     1       5.151   0.605   0.895  0.00  0.00    +0.051 A 
ATOM     13  C   UNL     1       4.440   1.387  -0.006  0.00  0.00    +0.026 A 
ATOM     14  C   UNL     1       3.758   2.503   0.439  0.00  0.00    +0.002 A 
ENDBRANCH   1  12
BRANCH   5  15
ATOM     15  C   UNL     1       9.984  -0.832  -0.621  0.00  0.00    +0.013 A 
ATOM     16  C   UNL     1      11.332  -0.815  -0.273  0.00  0.00    +0.015 A 
ATOM     17  C   UNL     1      11.974   0.388  -0.443  0.00  0.00    +0.008 A 
ATOM     18  C   UNL     1      11.275   1.447  -0.922  0.00  0.00    +0.046 A 
ATOM     19  S   UNL     1       9.726   0.845  -1.167  0.00  0.00    -0.097 S 
ENDBRANCH   5  15
BRANCH   8  20
ATOM     20  C   UNL     1       2.969  -0.964   1.103  0.00  0.00    +0.261 C 
ATOM     21  O   UNL     1       2.329  -0.181   0.423  0.00  0.00    -0.269 OA
ATOM     22  N   UNL     1       2.895  -0.906   2.447  0.00  0.00    -0.281 N 
ATOM     23  H   UNL     1       3.473  -1.466   2.989  0.00  0.00    +0.155 HD
BRANCH  22  24
ATOM     24  C   UNL     1       1.985  -0.040   3.061  0.00  0.00    +0.036 A 
ATOM     25  C   UNL     1       0.762   0.225   2.459  0.00  0.00    +0.043 A 
ATOM     26  C   UNL     1      -0.136   1.082   3.068  0.00  0.00    +0.044 A 
ATOM     27  C   UNL     1       0.184   1.677   4.276  0.00  0.00    +0.040 A 
ATOM     28  C   UNL     1       1.403   1.415   4.877  0.00  0.00    +0.044 A 
ATOM     29  C   UNL     1       2.301   0.554   4.276  0.00  0.00    +0.043 A 
ATOM     30 CL   UNL     1       1.801   2.164   6.392  0.00  0.00    -0.083 Cl
ATOM     31 CL   UNL     1      -1.665   1.413   2.316  0.00  0.00    -0.083 Cl
ENDBRANCH  22  24
ENDBRANCH   8  20
BRANCH   8  32
ATOM     32  C   UNL     1       3.254  -3.213   0.035  0.00  0.00    +0.107 C 
ATOM     33  N   UNL     1       2.808  -4.202  -0.301  0.00  0.00    -0.191 NA
ENDBRANCH   8  32
TORSDOF 5
