REMARK  Name = ZINC64245093
REMARK  5 active torsions:
REMARK  status: ('A' for Active; 'I' for Inactive)
REMARK    1  A    between atoms: C_1  and  C_2
REMARK    2  A    between atoms: C_3  and  C_22
REMARK    3  A    between atoms: N_7  and  S_8
REMARK    4  A    between atoms: S_8  and  C_11
REMARK    5  A    between atoms: C_15  and  C_17
REMARK                            x       y       z     vdW  Elec       q    Type
REMARK                         _______ _______ _______ _____ _____    ______ ____
ROOT
ATOM      1  S   UNL     1       3.739  -2.321  -0.031  0.00  0.00    +0.101 S 
ATOM      2  O   UNL     1       3.925  -1.656  -1.273  0.00  0.00    -0.146 OA
ATOM      3  O   UNL     1       3.938  -1.671   1.218  0.00  0.00    -0.146 OA
ENDROOT
BRANCH   1  10
ATOM      4  C   UNL     1      -0.018   1.503   0.010  0.00  0.00    +0.064 C 
ATOM      5  C   UNL     1       0.002  -0.004   0.002  0.00  0.00    +0.025 A 
ATOM      6  C   UNL     1      -1.144  -0.684   0.004  0.00  0.00    +0.009 A 
ATOM      7  S   UNL     1      -0.577  -2.377  -0.009  0.00  0.00    -0.053 S 
ATOM      8  C   UNL     1       1.179  -2.046  -0.016  0.00  0.00    +0.192 A 
ATOM      9  N   UNL     1       1.194  -0.668  -0.013  0.00  0.00    -0.336 N 
ATOM     10  N   UNL     1       2.183  -2.888  -0.026  0.00  0.00    -0.103 NA
ATOM     11  C   UNL     1      -2.557  -0.159   0.016  0.00  0.00    +0.053 C 
ATOM     12  H   UNL     1       2.033  -0.181  -0.019  0.00  0.00    +0.168 HD
ENDBRANCH   1  10
BRANCH   1  13
ATOM     13  C   UNL     1       4.804  -3.724  -0.045  0.00  0.00    +0.113 A 
ATOM     14  C   UNL     1       5.224  -4.284   1.148  0.00  0.00    +0.032 A 
ATOM     15  C   UNL     1       6.059  -5.385   1.138  0.00  0.00    +0.041 A 
ATOM     16  C   UNL     1       6.476  -5.926  -0.067  0.00  0.00    +0.135 A 
ATOM     17  C   UNL     1       6.056  -5.364  -1.260  0.00  0.00    +0.092 A 
ATOM     18  C   UNL     1       5.216  -4.266  -1.247  0.00  0.00    +0.044 A 
ATOM     19  F   UNL     1       7.294  -7.002  -0.077  0.00  0.00    -0.205 F 
BRANCH  17  20
ATOM     20  C   UNL     1       6.510  -5.951  -2.571  0.00  0.00    +0.420 C 
ATOM     21  F   UNL     1       5.958  -5.217  -3.627  0.00  0.00    -0.166 F 
ATOM     22  F   UNL     1       7.906  -5.900  -2.647  0.00  0.00    -0.166 F 
ATOM     23  F   UNL     1       6.087  -7.282  -2.657  0.00  0.00    -0.166 F 
ENDBRANCH  17  20
ENDBRANCH   1  13
TORSDOF 3
