REMARK  Name = ZINC36537842
REMARK  10 active torsions:
REMARK  status: ('A' for Active; 'I' for Inactive)
REMARK    1  A    between atoms: C_1  and  C_2
REMARK    2  A    between atoms: C_2  and  C_4
REMARK    3  A    between atoms: N_6  and  C_7
REMARK    4  A    between atoms: N_6  and  C_8
REMARK    5  A    between atoms: C_8  and  C_10
REMARK    6  A    between atoms: C_8  and  C_19
REMARK    7  A    between atoms: C_11  and  O_18
REMARK    8  A    between atoms: C_13  and  O_17
REMARK    9  A    between atoms: C_15  and  O_16
REMARK   10  A    between atoms: N_21  and  C_22
REMARK                            x       y       z     vdW  Elec       q    Type
REMARK                         _______ _______ _______ _____ _____    ______ ____
ROOT
ATOM      1  C   UNL     1      -2.380   1.367  -0.010  0.00  0.00    +0.199 C 
ENDROOT
BRANCH   1   2
ATOM      2  C   UNL     1      -1.583   1.910   1.149  0.00  0.00    +0.065 A 
ATOM      3  C   UNL     1      -0.279   1.486   1.353  0.00  0.00    +0.129 A 
ATOM      4  C   UNL     1       0.454   1.986   2.419  0.00  0.00    +0.091 A 
ATOM      5  C   UNL     1      -0.118   2.909   3.281  0.00  0.00    +0.124 A 
ATOM      6  C   UNL     1      -1.422   3.334   3.077  0.00  0.00    +0.091 A 
ATOM      7  C   UNL     1      -2.153   2.837   2.008  0.00  0.00    +0.129 A 
BRANCH   7   8
ATOM      8  O   UNL     1      -3.430   3.257   1.805  0.00  0.00    -0.506 OA
ATOM      9  H   UNL     1      -4.096   2.722   2.258  0.00  0.00    +0.292 HD
ENDBRANCH   7   8
BRANCH   5  10
ATOM     10  O   UNL     1       0.600   3.398   4.326  0.00  0.00    -0.507 OA
ATOM     11  H   UNL     1       1.102   4.198   4.119  0.00  0.00    +0.292 HD
ENDBRANCH   5  10
BRANCH   3  12
ATOM     12  O   UNL     1       0.281   0.581   0.508  0.00  0.00    -0.506 OA
ATOM     13  H   UNL     1       0.804   0.978  -0.203  0.00  0.00    +0.292 HD
ENDBRANCH   3  12
ENDBRANCH   1   2
BRANCH   1  16
ATOM     14  C   UNL     1      -3.420  -0.740  -0.654  0.00  0.00    +0.242 C 
ATOM     15  O   UNL     1      -3.522  -1.948  -0.564  0.00  0.00    -0.270 OA
ATOM     16  N   UNL     1      -2.603  -0.068   0.181  0.00  0.00    -0.285 N 
ATOM     17  C   UNL     1      -1.938  -0.773   1.280  0.00  0.00    +0.133 C 
BRANCH  14  19
ATOM     18  C   UNL     1      -4.436   1.467  -1.520  0.00  0.00    +0.048 C 
ATOM     19  C   UNL     1      -4.188  -0.012  -1.676  0.00  0.00    +0.004 C 
ATOM     20  C   UNL     1      -4.663  -0.657  -2.737  0.00  0.00    +0.017 C 
ENDBRANCH  14  19
ENDBRANCH   1  16
BRANCH   1  21
ATOM     21  C   UNL     1      -1.619   1.591  -1.291  0.00  0.00    +0.239 C 
ATOM     22  O   UNL     1      -1.085   0.657  -1.851  0.00  0.00    -0.273 OA
ATOM     23  N   UNL     1      -1.532   2.830  -1.815  0.00  0.00    -0.311 N 
ATOM     24  H   UNL     1      -1.958   3.577  -1.367  0.00  0.00    +0.149 HD
BRANCH  23  25
ATOM     25  C   UNL     1      -0.792   3.048  -3.061  0.00  0.00    +0.073 C 
ATOM     26  C   UNL     1       0.694   3.235  -2.746  0.00  0.00    +0.022 C 
ATOM     27  C   UNL     1       1.466   3.463  -4.047  0.00  0.00    +0.002 C 
ATOM     28  C   UNL     1       0.931   4.715  -4.745  0.00  0.00    +0.000 C 
ATOM     29  C   UNL     1      -0.555   4.527  -5.060  0.00  0.00    +0.002 C 
ATOM     30  C   UNL     1      -1.327   4.300  -3.759  0.00  0.00    +0.022 C 
ENDBRANCH  23  25
ENDBRANCH   1  21
TORSDOF 8
