REMARK  Name = ZINC32709448
REMARK  5 active torsions:
REMARK  status: ('A' for Active; 'I' for Inactive)
REMARK    1  A    between atoms: C_1  and  C_2
REMARK    2  A    between atoms: C_5  and  N_8
REMARK    3  A    between atoms: C_18  and  N_19
REMARK    4  A    between atoms: N_19  and  N_20
REMARK    5  A    between atoms: N_28  and  C_31
REMARK                            x       y       z     vdW  Elec       q    Type
REMARK                         _______ _______ _______ _____ _____    ______ ____
ROOT
ATOM      1  N   UNL     1       0.411  -4.281   0.044  0.00  0.00    -0.202 N 
ATOM      2  C   UNL     1       0.506  -4.969   1.193  0.00  0.00    +0.258 C 
ATOM      3  O   UNL     1       0.678  -4.368   2.237  0.00  0.00    -0.269 OA
ATOM      4  C   UNL     1       0.405  -6.434   1.212  0.00  0.00    +0.046 A 
ATOM      5  C   UNL     1       0.503  -7.154   2.403  0.00  0.00    +0.014 A 
ATOM      6  C   UNL     1       0.403  -8.529   2.379  0.00  0.00    +0.001 A 
ATOM      7  C   UNL     1       0.207  -9.204   1.184  0.00  0.00    +0.001 A 
ATOM      8  C   UNL     1       0.108  -8.511  -0.006  0.00  0.00    +0.009 A 
ATOM      9  C   UNL     1       0.206  -7.125  -0.002  0.00  0.00    +0.000 A 
ATOM     10  C   UNL     1       0.106  -6.334  -1.247  0.00  0.00    +0.061 C 
ATOM     11  C   UNL     1      -0.087  -6.944  -2.453  0.00  0.00    +0.105 C 
ATOM     12  C   UNL     1       0.216  -4.872  -1.146  0.00  0.00    +0.259 C 
ATOM     13  O   UNL     1       0.134  -4.191  -2.152  0.00  0.00    -0.269 OA
ENDROOT
BRANCH   1  18
ATOM     14  C   UNL     1       0.830   1.376   0.225  0.00  0.00    +0.044 C 
ATOM     15  C   UNL     1       0.719  -0.127   0.177  0.00  0.00    -0.050 A 
ATOM     16  C   UNL     1       1.752  -0.910   0.655  0.00  0.00    +0.005 A 
ATOM     17  C   UNL     1       1.653  -2.288   0.612  0.00  0.00    +0.024 A 
ATOM     18  C   UNL     1       0.514  -2.884   0.089  0.00  0.00    +0.045 A 
ATOM     19  C   UNL     1      -0.522  -2.094  -0.391  0.00  0.00    +0.024 A 
ATOM     20  C   UNL     1      -0.419  -0.718  -0.341  0.00  0.00    +0.005 A 
ENDBRANCH   1  18
BRANCH  11  21
ATOM     21  N   UNL     1      -0.730  -8.145  -2.515  0.00  0.00    -0.244 N 
ATOM     22  H   UNL     1      -1.139  -8.518  -1.718  0.00  0.00    +0.174 HD
BRANCH  21  23
ATOM     23  N   UNL     1      -0.799  -8.841  -3.729  0.00  0.00    -0.177 NA
ATOM     24  C   UNL     1      -1.360 -10.027  -3.775  0.00  0.00    +0.153 C 
ATOM     25  C   UNL     1      -2.119 -10.707  -2.700  0.00  0.00    +0.028 A 
ATOM     26  C   UNL     1      -2.459 -10.349  -1.401  0.00  0.00    +0.012 A 
ATOM     27  C   UNL     1      -3.194 -11.219  -0.620  0.00  0.00    +0.001 A 
ATOM     28  C   UNL     1      -3.590 -12.443  -1.131  0.00  0.00    +0.002 A 
ATOM     29  C   UNL     1      -3.258 -12.808  -2.420  0.00  0.00    +0.024 A 
ATOM     30  C   UNL     1      -2.518 -11.945  -3.221  0.00  0.00    +0.046 A 
ATOM     31  N   UNL     1      -2.058 -12.064  -4.528  0.00  0.00    -0.269 N 
ATOM     32  C   UNL     1      -1.378 -10.970  -4.910  0.00  0.00    +0.271 C 
ATOM     33  O   UNL     1      -0.866 -10.789  -5.999  0.00  0.00    -0.268 OA
ATOM     34  C   UNL     1      -2.291 -13.232  -5.382  0.00  0.00    +0.138 C 
ENDBRANCH  21  23
ENDBRANCH  11  21
TORSDOF 3
