REMARK  Name = ZINC39605760
REMARK  8 active torsions:
REMARK  status: ('A' for Active; 'I' for Inactive)
REMARK    1  A    between atoms: C_1  and  C_2
REMARK    2  A    between atoms: C_2  and  C_3
REMARK    3  A    between atoms: C_3  and  C_5
REMARK    4  A    between atoms: C_3  and  C_6
REMARK    5  A    between atoms: C_6  and  N_7
REMARK    6  A    between atoms: C_8  and  C_10
REMARK    7  A    between atoms: C_21  and  C_23
REMARK    8  A    between atoms: C_26  and  C_29
REMARK                            x       y       z     vdW  Elec       q    Type
REMARK                         _______ _______ _______ _____ _____    ______ ____
ROOT
ATOM      1  C   UNL     1      -4.087  -4.451   0.136  0.00  0.00    +0.100 C 
ATOM      2  C   UNL     1      -5.123  -4.165   1.246  0.00  0.00    +0.121 C 
ATOM      3  N   UNL     1      -5.973  -5.379   1.287  0.00  0.00    -0.296 N 
ATOM      4  C   UNL     1      -5.022  -6.501   1.095  0.00  0.00    +0.115 C 
ATOM      5  C   UNL     1      -4.024  -5.984   0.040  0.00  0.00    -0.004 C 
ATOM      6  C   UNL     1      -4.442  -6.444  -1.353  0.00  0.00    -0.010 C 
ATOM      7  C   UNL     1      -4.316  -7.968  -1.442  0.00  0.00    -0.082 C 
ATOM      8  N   UNL     1      -2.928  -8.362  -1.171  0.00  0.00    +0.379 N 
ATOM      9  C   UNL     1      -2.563  -7.998   0.204  0.00  0.00    -0.082 C 
ATOM     10  C   UNL     1      -2.616  -6.476   0.362  0.00  0.00    -0.010 C 
ATOM     11  C   UNL     1      -7.307  -5.448   1.460  0.00  0.00    +0.247 C 
ATOM     12  O   UNL     1      -7.971  -4.430   1.476  0.00  0.00    -0.270 OA
ATOM     13  H   UNL     1      -2.834  -9.360  -1.289  0.00  0.00    -0.086 HD
ATOM     14  H   UNL     1      -2.314  -7.890  -1.817  0.00  0.00    -0.086 HD
ENDROOT
BRANCH  11  15
ATOM     15  C   UNL     1      -7.964  -6.762   1.629  0.00  0.00    +0.037 A 
ATOM     16  C   UNL     1      -7.221  -7.870   2.038  0.00  0.00    +0.013 A 
ATOM     17  C   UNL     1      -7.840  -9.093   2.195  0.00  0.00    +0.013 A 
ATOM     18  C   UNL     1      -9.194  -9.223   1.946  0.00  0.00    +0.055 A 
ATOM     19  C   UNL     1      -9.937  -8.129   1.539  0.00  0.00    +0.013 A 
ATOM     20  C   UNL     1      -9.332  -6.899   1.385  0.00  0.00    +0.013 A 
BRANCH  18  21
ATOM     21  C   UNL     1      -9.864 -10.562   2.118  0.00  0.00    +0.417 C 
ATOM     22  F   UNL     1     -10.330 -10.684   3.431  0.00  0.00    -0.166 F 
ATOM     23  F   UNL     1     -10.940 -10.663   1.230  0.00  0.00    -0.166 F 
ATOM     24  F   UNL     1      -8.943 -11.581   1.854  0.00  0.00    -0.166 F 
ENDBRANCH  18  21
ENDBRANCH  11  15
BRANCH   1  26
ATOM     25  N   UNL     1      -1.888  -3.475  -0.438  0.00  0.00    -0.315 N 
ATOM     26  C   UNL     1      -2.741  -3.892   0.519  0.00  0.00    +0.218 C 
ATOM     27  O   UNL     1      -2.425  -3.819   1.687  0.00  0.00    -0.275 OA
ATOM     28  H   UNL     1      -2.141  -3.534  -1.372  0.00  0.00    +0.149 HD
BRANCH  25  29
ATOM     29  C   UNL     1      -0.579  -2.932  -0.066  0.00  0.00    +0.107 C 
BRANCH  29  30
ATOM     30  C   UNL     1       0.186  -2.536  -1.330  0.00  0.00    +0.003 C 
ATOM     31  C   UNL     1      -0.544  -1.388  -2.030  0.00  0.00    +0.009 C 
BRANCH  30  33
ATOM     32  C   UNL     1       2.404  -1.809  -2.221  0.00  0.00    +0.004 C 
ATOM     33  C   UNL     1       1.599  -2.086  -0.951  0.00  0.00    +0.001 C 
ENDBRANCH  30  33
ENDBRANCH  29  30
ENDBRANCH  25  29
ENDBRANCH   1  26
TORSDOF 6
