REMARK  Name = ZINC05213444
REMARK  8 active torsions:
REMARK  status: ('A' for Active; 'I' for Inactive)
REMARK    1  A    between atoms: C_1  and  C_2
REMARK    2  A    between atoms: C_4  and  C_27
REMARK    3  A    between atoms: C_10  and  S_11
REMARK    4  A    between atoms: S_11  and  C_12
REMARK    5  A    between atoms: C_12  and  C_13
REMARK    6  A    between atoms: N_15  and  C_16
REMARK    7  A    between atoms: C_21  and  C_26
REMARK    8  A    between atoms: C_23  and  C_25
REMARK                            x       y       z     vdW  Elec       q    Type
REMARK                         _______ _______ _______ _____ _____    ______ ____
ROOT
ATOM      1  C   UNL     1       6.143  -1.593  -0.065  0.00  0.00    +0.173 C 
ENDROOT
BRANCH   1   2
ATOM      2  C   UNL     1       6.856  -2.921  -0.080  0.00  0.00    +0.224 C 
ATOM      3  O   UNL     1       6.217  -3.952  -0.080  0.00  0.00    -0.275 OA
ATOM      4  N   UNL     1       8.203  -2.962  -0.093  0.00  0.00    -0.312 N 
ATOM      5  H   UNL     1       8.714  -2.138  -0.093  0.00  0.00    +0.149 HD
BRANCH   4   6
ATOM      6  C   UNL     1       8.895  -4.253  -0.107  0.00  0.00    +0.076 C 
ATOM      7  C   UNL     1       9.012  -4.754  -1.548  0.00  0.00    +0.022 C 
ATOM      8  C   UNL     1       9.736  -6.102  -1.562  0.00  0.00    +0.002 C 
ATOM      9  C   UNL     1      11.134  -5.937  -0.965  0.00  0.00    +0.003 C 
ATOM     10  C   UNL     1      11.018  -5.436   0.476  0.00  0.00    -0.009 C 
ATOM     11  C   UNL     1      10.294  -4.088   0.491  0.00  0.00    +0.009 C 
ATOM     12  C   UNL     1      10.178  -3.587   1.932  0.00  0.00    +0.009 C 
ATOM     13  C   UNL     1      12.416  -5.271   1.074  0.00  0.00    +0.008 C 
ENDBRANCH   4   6
ENDBRANCH   1   2
BRANCH   1  14
ATOM     14  S   UNL     1       4.350  -1.869  -0.050  0.00  0.00    -0.076 S 
BRANCH  14  24
ATOM     15  C   UNL     1      -1.336   2.130   0.020  0.00  0.00    +0.066 C 
ATOM     16  C   UNL     1      -0.017   1.401   0.010  0.00  0.00    +0.044 A 
ATOM     17  C   UNL     1       0.002  -0.004   0.002  0.00  0.00    +0.044 A 
ATOM     18  C   UNL     1       1.190  -0.654  -0.013  0.00  0.00    +0.028 A 
ATOM     19  N   UNL     1       2.344   0.078  -0.020  0.00  0.00    -0.259 N 
ATOM     20  C   UNL     1       2.289   1.456  -0.012  0.00  0.00    +0.257 A 
ATOM     21  N   UNL     1       1.103   2.082   0.003  0.00  0.00    -0.216 NA
ATOM     22  N   UNL     1       3.537   1.886  -0.021  0.00  0.00    -0.108 NA
ATOM     23  N   UNL     1       4.343   0.883  -0.035  0.00  0.00    -0.120 NA
ATOM     24  C   UNL     1       3.669  -0.244  -0.034  0.00  0.00    +0.198 A 
ATOM     25  C   UNL     1       1.239  -2.160  -0.021  0.00  0.00    +0.064 C 
ENDBRANCH  14  24
ENDBRANCH   1  14
TORSDOF 4
