REMARK  Name = ZINC05336438
REMARK  7 active torsions:
REMARK  status: ('A' for Active; 'I' for Inactive)
REMARK    1  A    between atoms: C_1  and  C_2
REMARK    2  A    between atoms: C_3  and  C_18
REMARK    3  A    between atoms: C_4  and  O_17
REMARK    4  A    between atoms: C_14  and  C_15
REMARK    5  A    between atoms: N_19  and  C_20
REMARK    6  A    between atoms: C_24  and  N_26
REMARK    7  A    between atoms: N_26  and  C_27
REMARK                            x       y       z     vdW  Elec       q    Type
REMARK                         _______ _______ _______ _____ _____    ______ ____
ROOT
ATOM      1  C   UNL     1      -7.929   8.122  -1.247  0.00  0.00    +0.046 C 
ATOM      2  C   UNL     1      -6.513   7.628  -1.107  0.00  0.00    -0.016 A 
ATOM      3  C   UNL     1      -6.256   6.263  -0.873  0.00  0.00    +0.057 A 
ATOM      4  C   UNL     1      -4.947   5.805  -0.743  0.00  0.00    +0.208 A 
ATOM      5  N   UNL     1      -3.888   6.653  -0.839  0.00  0.00    -0.262 N 
ATOM      6  C   UNL     1      -2.521   6.446  -0.748  0.00  0.00    +0.077 A 
ATOM      7  C   UNL     1      -1.732   5.325  -0.532  0.00  0.00    +0.028 A 
ATOM      8  C   UNL     1      -0.359   5.451  -0.502  0.00  0.00    +0.002 A 
ATOM      9  C   UNL     1       0.238   6.690  -0.688  0.00  0.00    +0.002 A 
ATOM     10  C   UNL     1      -0.522   7.805  -0.902  0.00  0.00    +0.030 A 
ATOM     11  C   UNL     1      -1.917   7.702  -0.935  0.00  0.00    +0.090 A 
ATOM     12  N   UNL     1      -2.911   8.603  -1.123  0.00  0.00    -0.226 NA
ATOM     13  C   UNL     1      -4.080   7.995  -1.065  0.00  0.00    +0.159 A 
ATOM     14  C   UNL     1      -5.449   8.512  -1.202  0.00  0.00    +0.098 A 
ENDROOT
BRANCH  14  15
ATOM     15  C   UNL     1      -5.680   9.904  -1.443  0.00  0.00    +0.103 C 
ATOM     16  N   UNL     1      -5.863  11.009  -1.635  0.00  0.00    -0.191 NA
ENDBRANCH  14  15
BRANCH   4  17
ATOM     17  O   UNL     1      -4.726   4.494  -0.519  0.00  0.00    -0.493 OA
ATOM     18  H   UNL     1      -4.689   4.207   0.404  0.00  0.00    +0.294 HD
ENDBRANCH   4  17
BRANCH   3  19
ATOM     19  C   UNL     1      -7.373   5.319  -0.765  0.00  0.00    +0.124 C 
ATOM     20  N   UNL     1      -7.139   4.053  -0.547  0.00  0.00    -0.255 NA
BRANCH  20  21
ATOM     21  C   UNL     1      -8.182   3.172  -0.446  0.00  0.00    +0.066 A 
ATOM     22  C   UNL     1      -9.304   3.498   0.321  0.00  0.00    +0.028 A 
ATOM     23  C   UNL     1     -10.354   2.608   0.421  0.00  0.00    +0.004 A 
ATOM     24  C   UNL     1     -10.300   1.393  -0.235  0.00  0.00    +0.023 A 
ATOM     25  C   UNL     1      -9.189   1.058  -1.001  0.00  0.00    +0.033 A 
ATOM     26  C   UNL     1      -8.131   1.947  -1.112  0.00  0.00    +0.051 A 
BRANCH  25  27
ATOM     27  N   UNL     1      -9.140  -0.172  -1.661  0.00  0.00    -0.314 N 
ATOM     28  H   UNL     1      -8.639  -0.260  -2.487  0.00  0.00    +0.152 HD
BRANCH  27  29
ATOM     29  C   UNL     1      -9.813  -1.276  -1.133  0.00  0.00    +0.031 A 
ATOM     30  C   UNL     1      -9.963  -1.408   0.242  0.00  0.00    +0.023 A 
ATOM     31  C   UNL     1     -10.633  -2.498   0.762  0.00  0.00    +0.002 A 
ATOM     32  C   UNL     1     -11.146  -3.463  -0.085  0.00  0.00    +0.000 A 
ATOM     33  C   UNL     1     -10.995  -3.338  -1.454  0.00  0.00    +0.002 A 
ATOM     34  C   UNL     1     -10.330  -2.248  -1.980  0.00  0.00    +0.023 A 
ENDBRANCH  27  29
ENDBRANCH  25  27
ENDBRANCH  20  21
ENDBRANCH   3  19
TORSDOF 6
