REMARK  Name = ZINC20632614
REMARK  5 active torsions:
REMARK  status: ('A' for Active; 'I' for Inactive)
REMARK    1  A    between atoms: C_1  and  C_2
REMARK    2  A    between atoms: C_5  and  C_8
REMARK    3  A    between atoms: C_8  and  S_9
REMARK    4  A    between atoms: S_9  and  C_10
REMARK    5  A    between atoms: C_22  and  C_25
REMARK                            x       y       z     vdW  Elec       q    Type
REMARK                         _______ _______ _______ _____ _____    ______ ____
ROOT
ATOM      1  C   UNL     1      -5.668   2.785  -0.249  0.00  0.00    +0.211 A 
ATOM      2  N   UNL     1      -4.845   3.798   0.016  0.00  0.00    -0.183 NA
ATOM      3  C   UNL     1      -3.591   3.361   0.056  0.00  0.00    +0.254 A 
ATOM      4  N   UNL     1      -2.429   3.992   0.292  0.00  0.00    -0.215 NA
ATOM      5  C   UNL     1      -1.286   3.345   0.275  0.00  0.00    +0.058 A 
ATOM      6  C   UNL     1      -1.282   1.955   0.019  0.00  0.00    +0.057 A 
ATOM      7  C   UNL     1      -2.480   1.300  -0.215  0.00  0.00    +0.129 A 
ATOM      8  N   UNL     1      -3.623   2.017  -0.194  0.00  0.00    -0.202 N 
ATOM      9  N   UNL     1      -4.968   1.677  -0.386  0.00  0.00    -0.137 NA
ATOM     10  C   UNL     1      -0.014   1.209   0.009  0.00  0.00    +0.167 C 
ATOM     11  O   UNL     1       0.002  -0.004   0.002  0.00  0.00    -0.292 OA
ATOM     12  C   UNL     1       1.270   2.012   0.001  0.00  0.00    +0.088 C 
ATOM     13  C   UNL     1       1.100   3.163   1.001  0.00  0.00    +0.032 C 
ATOM     14  C   UNL     1      -0.007   4.097   0.520  0.00  0.00    +0.065 C 
ENDROOT
BRANCH  13  15
ATOM     15  C   UNL     1       2.393   3.929   1.110  0.00  0.00    -0.043 A 
ATOM     16  C   UNL     1       2.935   4.532  -0.009  0.00  0.00    +0.005 A 
ATOM     17  C   UNL     1       4.118   5.239   0.091  0.00  0.00    +0.020 A 
ATOM     18  C   UNL     1       4.765   5.336   1.310  0.00  0.00    +0.041 A 
ATOM     19  C   UNL     1       4.224   4.728   2.429  0.00  0.00    +0.020 A 
ATOM     20  C   UNL     1       3.038   4.025   2.329  0.00  0.00    +0.005 A 
ATOM     21 CL   UNL     1       6.255   6.218   1.436  0.00  0.00    -0.084 Cl
ENDBRANCH  13  15
BRANCH   1  22
ATOM     22  S   UNL     1      -7.419   2.907  -0.394  0.00  0.00    -0.080 S 
BRANCH  22  23
ATOM     23  C   UNL     1      -7.762   4.665  -0.104  0.00  0.00    +0.112 C 
BRANCH  23  28
ATOM     24  C   UNL     1     -13.451   5.605  -0.476  0.00  0.00    +0.044 C 
ATOM     25  C   UNL     1     -11.967   5.360  -0.379  0.00  0.00    -0.050 A 
ATOM     26  C   UNL     1     -11.399   5.032   0.838  0.00  0.00    +0.003 A 
ATOM     27  C   UNL     1     -10.038   4.807   0.927  0.00  0.00    +0.005 A 
ATOM     28  C   UNL     1      -9.245   4.910  -0.201  0.00  0.00    -0.037 A 
ATOM     29  C   UNL     1      -9.813   5.244  -1.417  0.00  0.00    +0.005 A 
ATOM     30  C   UNL     1     -11.174   5.464  -1.507  0.00  0.00    +0.003 A 
ENDBRANCH  23  28
ENDBRANCH  22  23
ENDBRANCH   1  22
TORSDOF 4
