REMARK  Name = ZINC22637306
REMARK  11 active torsions:
REMARK  status: ('A' for Active; 'I' for Inactive)
REMARK    1  A    between atoms: C_1  and  C_2
REMARK    2  A    between atoms: C_2  and  C_27
REMARK    3  A    between atoms: N_3  and  N_4
REMARK    4  A    between atoms: C_5  and  C_7
REMARK    5  A    between atoms: C_7  and  N_18
REMARK    6  A    between atoms: C_8  and  C_9
REMARK    7  A    between atoms: C_12  and  N_15
REMARK    8  A    between atoms: N_15  and  C_16
REMARK    9  A    between atoms: N_15  and  C_17
REMARK   10  A    between atoms: C_19  and  C_21
REMARK   11  A    between atoms: C_30  and  N_33
REMARK                            x       y       z     vdW  Elec       q    Type
REMARK                         _______ _______ _______ _____ _____    ______ ____
ROOT
ATOM      1  C   UNL     1      -0.979  -2.079  -0.189  0.00  0.00    +0.098 C 
ATOM      2  C   UNL     1       0.238  -2.668  -0.091  0.00  0.00    +0.036 C 
ENDROOT
BRANCH   2   3
ATOM      3  C   UNL     1       1.456  -1.849  -0.126  0.00  0.00    -0.023 A 
ATOM      4  C   UNL     1       1.425  -0.568  -0.691  0.00  0.00    +0.010 A 
ATOM      5  C   UNL     1       2.568   0.199  -0.717  0.00  0.00    +0.023 A 
ATOM      6  C   UNL     1       3.756  -0.301  -0.191  0.00  0.00    +0.029 A 
ATOM      7  C   UNL     1       3.792  -1.576   0.367  0.00  0.00    +0.023 A 
ATOM      8  C   UNL     1       2.653  -2.348   0.402  0.00  0.00    +0.010 A 
BRANCH   6   9
ATOM      9  N   UNL     1       4.911   0.476  -0.224  0.00  0.00    -0.336 N 
ATOM     10  C   UNL     1       6.188  -0.092   0.215  0.00  0.00    +0.129 C 
ATOM     11  C   UNL     1       4.849   1.861  -0.697  0.00  0.00    +0.129 C 
ENDBRANCH   6   9
ENDBRANCH   2   3
BRANCH   1  13
ATOM     12  N   UNL     1      -3.397  -2.318  -0.389  0.00  0.00    -0.202 N 
ATOM     13  C   UNL     1      -2.188  -2.904  -0.292  0.00  0.00    +0.277 C 
ATOM     14  O   UNL     1      -2.098  -4.118  -0.291  0.00  0.00    -0.267 OA
ATOM     15  H   UNL     1      -3.478  -1.221  -0.390  0.00  0.00    +0.178 HD
BRANCH  12  18
ATOM     16  C   UNL     1      -5.828  -1.038  -0.582  0.00  0.00    +0.068 C 
ATOM     17  C   UNL     1      -5.717  -2.541  -0.580  0.00  0.00    +0.063 C 
ATOM     18  N   UNL     1      -4.552  -3.106  -0.487  0.00  0.00    -0.184 NA
BRANCH  17  19
ATOM     19  C   UNL     1      -6.932  -3.370  -0.684  0.00  0.00    -0.002 A 
ATOM     20  C   UNL     1      -8.188  -2.766  -0.779  0.00  0.00    +0.012 A 
ATOM     21  C   UNL     1      -9.319  -3.548  -0.882  0.00  0.00    +0.033 A 
ATOM     22  C   UNL     1      -9.214  -4.927  -0.880  0.00  0.00    +0.126 A 
ATOM     23  C   UNL     1      -7.973  -5.533  -0.781  0.00  0.00    +0.033 A 
ATOM     24  C   UNL     1      -6.833  -4.764  -0.683  0.00  0.00    +0.012 A 
BRANCH  22  25
ATOM     25  N   UNL     1     -10.433  -5.760  -0.985  0.00  0.00    +0.056 N 
ATOM     26  O   UNL     1     -10.343  -6.974  -0.984  0.00  0.00    -0.126 OA
ATOM     27  O   UNL     1     -11.526  -5.230  -1.072  0.00  0.00    -0.126 OA
ENDBRANCH  22  25
ENDBRANCH  17  19
ENDBRANCH  12  18
ENDBRANCH   1  13
BRANCH   1  28
ATOM     28  N   UNL     1      -1.082  -0.684  -0.190  0.00  0.00    -0.277 N 
ATOM     29  C   UNL     1      -1.654  -0.051  -1.234  0.00  0.00    +0.248 C 
ATOM     30  O   UNL     1      -2.159  -0.696  -2.133  0.00  0.00    -0.270 OA
ATOM     31  H   UNL     1      -0.696  -0.103   0.660  0.00  0.00    +0.155 HD
BRANCH  29  32
ATOM     32  C   UNL     1      -1.668   1.426  -1.286  0.00  0.00    +0.037 A 
ATOM     33  C   UNL     1      -1.196   2.170  -0.203  0.00  0.00    +0.013 A 
ATOM     34  C   UNL     1      -1.208   3.548  -0.259  0.00  0.00    +0.001 A 
ATOM     35  C   UNL     1      -1.695   4.193  -1.382  0.00  0.00    +0.000 A 
ATOM     36  C   UNL     1      -2.169   3.462  -2.457  0.00  0.00    +0.001 A 
ATOM     37  C   UNL     1      -2.159   2.083  -2.415  0.00  0.00    +0.013 A 
ENDBRANCH  29  32
ENDBRANCH   1  28
TORSDOF 8
