REMARK  Name = ZINC20756978
REMARK  6 active torsions:
REMARK  status: ('A' for Active; 'I' for Inactive)
REMARK    1  A    between atoms: C_1  and  O_2
REMARK    2  A    between atoms: O_2  and  C_3
REMARK    3  A    between atoms: C_3  and  C_4
REMARK    4  A    between atoms: C_4  and  N_5
REMARK    5  A    between atoms: C_10  and  C_28
REMARK    6  A    between atoms: C_28  and  C_29
REMARK                            x       y       z     vdW  Elec       q    Type
REMARK                         _______ _______ _______ _____ _____    ______ ____
ROOT
ATOM      1  N   UNL     1      -0.515  -2.565   1.245  0.00  0.00    -0.239 N 
ATOM      2  C   UNL     1       0.811  -2.680   1.376  0.00  0.00    +0.227 C 
ATOM      3  O   UNL     1       1.624  -2.442   0.508  0.00  0.00    -0.275 OA
ATOM      4  C   UNL     1       1.139  -3.152   2.775  0.00  0.00    +0.107 C 
ATOM      5  C   UNL     1       1.704  -4.588   2.704  0.00  0.00    +0.072 C 
ATOM      6  N   UNL     1       0.990  -5.330   3.778  0.00  0.00    -0.295 NA
ATOM      7  C   UNL     1      -0.388  -4.807   3.723  0.00  0.00    +0.136 C 
ATOM      8  C   UNL     1      -0.258  -3.289   3.443  0.00  0.00    +0.122 C 
ATOM      9  C   UNL     1      -1.211  -2.879   2.344  0.00  0.00    +0.228 C 
ATOM     10  O   UNL     1      -2.419  -2.842   2.442  0.00  0.00    -0.275 OA
ATOM     11  C   UNL     1      -1.199  -5.505   2.668  0.00  0.00    +0.005 A 
ATOM     12  C   UNL     1      -1.062  -5.645   1.305  0.00  0.00    +0.027 A 
ATOM     13  C   UNL     1      -1.997  -6.370   0.586  0.00  0.00    +0.041 A 
ATOM     14  C   UNL     1      -3.069  -6.951   1.241  0.00  0.00    +0.022 A 
ATOM     15  C   UNL     1      -3.211  -6.811   2.605  0.00  0.00    +0.025 A 
ATOM     16  C   UNL     1      -2.274  -6.084   3.336  0.00  0.00    +0.039 A 
ATOM     17  N   UNL     1      -2.200  -5.805   4.703  0.00  0.00    -0.283 N 
ATOM     18  C   UNL     1      -1.121  -5.060   5.012  0.00  0.00    +0.243 C 
ATOM     19  O   UNL     1      -0.803  -4.668   6.115  0.00  0.00    -0.273 OA
ATOM     20 CL   UNL     1      -1.825  -6.549  -1.132  0.00  0.00    -0.084 Cl
ATOM     21  H   UNL     1       1.007  -6.323   3.603  0.00  0.00    +0.124 HD
ATOM     22  H   UNL     1      -2.850  -6.112   5.354  0.00  0.00    +0.155 HD
ENDROOT
BRANCH   1  23
ATOM     23  C   UNL     1      -1.154  -2.126   0.002  0.00  0.00    +0.144 C 
BRANCH  23  24
ATOM     24  C   UNL     1      -1.295  -0.603   0.011  0.00  0.00    +0.179 C 
BRANCH  24  26
ATOM     25  C   UNL     1      -0.017   1.425   0.010  0.00  0.00    +0.194 C 
ATOM     26  O   UNL     1       0.002  -0.004   0.002  0.00  0.00    -0.381 OA
ENDBRANCH  24  26
ENDBRANCH  23  24
ENDBRANCH   1  23
BRANCH   5  27
ATOM     27  C   UNL     1       3.210  -4.581   2.970  0.00  0.00    +0.056 C 
BRANCH  27  28
ATOM     28  C   UNL     1       3.761  -5.970   2.776  0.00  0.00    -0.021 A 
ATOM     29  C   UNL     1       3.952  -6.894   3.731  0.00  0.00    +0.087 A 
ATOM     30  N   UNL     1       4.467  -8.035   3.180  0.00  0.00    -0.360 N 
ATOM     31  H   UNL     1       4.689  -8.841   3.673  0.00  0.00    +0.165 HD
ATOM     32  C   UNL     1       4.625  -7.870   1.823  0.00  0.00    +0.047 A 
ATOM     33  C   UNL     1       4.183  -6.571   1.509  0.00  0.00    +0.003 A 
ATOM     34  C   UNL     1       4.222  -6.123   0.187  0.00  0.00    +0.010 A 
ATOM     35  C   UNL     1       4.685  -6.950  -0.797  0.00  0.00    +0.001 A 
ATOM     36  C   UNL     1       5.118  -8.233  -0.493  0.00  0.00    +0.002 A 
ATOM     37  C   UNL     1       5.097  -8.693   0.806  0.00  0.00    +0.026 A 
ENDBRANCH  27  28
ENDBRANCH   5  27
TORSDOF 5
