REMARK  Name = ZINC16622073
REMARK  7 active torsions:
REMARK  status: ('A' for Active; 'I' for Inactive)
REMARK    1  A    between atoms: C_1  and  C_2
REMARK    2  A    between atoms: C_4  and  O_23
REMARK    3  A    between atoms: C_5  and  S_9
REMARK    4  A    between atoms: C_7  and  C_8
REMARK    5  A    between atoms: S_9  and  N_12
REMARK    6  A    between atoms: N_12  and  C_13
REMARK    7  A    between atoms: O_23  and  C_24
REMARK                            x       y       z     vdW  Elec       q    Type
REMARK                         _______ _______ _______ _____ _____    ______ ____
ROOT
ATOM      1  S   UNL     1       3.832  -1.946  -1.069  0.00  0.00    +0.076 S 
ATOM      2  O   UNL     1       5.162  -2.406  -0.874  0.00  0.00    -0.150 OA
ATOM      3  O   UNL     1       2.701  -2.790  -0.901  0.00  0.00    -0.150 OA
ENDROOT
BRANCH   1   8
ATOM      4  C   UNL     1       3.563   0.203  -6.705  0.00  0.00    +0.044 C 
ATOM      5  C   UNL     1       3.627  -0.333  -5.298  0.00  0.00    -0.044 A 
ATOM      6  C   UNL     1       2.510  -0.278  -4.487  0.00  0.00    +0.051 A 
ATOM      7  C   UNL     1       2.570  -0.771  -3.191  0.00  0.00    +0.147 A 
ATOM      8  C   UNL     1       3.752  -1.318  -2.714  0.00  0.00    +0.150 A 
ATOM      9  C   UNL     1       4.867  -1.366  -3.527  0.00  0.00    +0.036 A 
ATOM     10  C   UNL     1       4.803  -0.879  -4.819  0.00  0.00    -0.045 A 
ATOM     11  C   UNL     1       6.021  -0.938  -5.706  0.00  0.00    +0.044 C 
BRANCH   7  12
ATOM     12  O   UNL     1       1.472  -0.719  -2.392  0.00  0.00    -0.493 OA
ATOM     13  C   UNL     1       0.290  -0.142  -2.950  0.00  0.00    +0.277 C 
ENDBRANCH   7  12
ENDBRANCH   1   8
BRANCH   1  14
ATOM     14  N   UNL     1       3.620  -0.662  -0.045  0.00  0.00    -0.216 N 
ATOM     15  H   UNL     1       4.341  -0.386   0.543  0.00  0.00    +0.174 HD
BRANCH  14  16
ATOM     16  C   UNL     1       2.401   0.025  -0.026  0.00  0.00    +0.052 A 
ATOM     17  C   UNL     1       1.206  -0.682  -0.016  0.00  0.00    +0.028 A 
ATOM     18  C   UNL     1       0.002  -0.004   0.002  0.00  0.00    +0.051 A 
ATOM     19  C   UNL     1      -0.017   1.383   0.010  0.00  0.00    +0.162 A 
ATOM     20  C   UNL     1       1.178   2.093   0.002  0.00  0.00    +0.164 A 
ATOM     21  C   UNL     1       2.386   1.412  -0.017  0.00  0.00    +0.074 A 
ATOM     22  O   UNL     1       1.179   3.454   0.018  0.00  0.00    -0.485 OA
ATOM     23  C   UNL     1      -0.045   4.103  -0.340  0.00  0.00    +0.270 C 
ATOM     24  C   UNL     1      -1.193   3.412   0.408  0.00  0.00    +0.270 C 
ATOM     25  O   UNL     1      -1.214   2.034   0.019  0.00  0.00    -0.485 OA
ENDBRANCH  14  16
ENDBRANCH   1  14
TORSDOF 4
