REMARK  Name = ZINC22789366
REMARK  10 active torsions:
REMARK  status: ('A' for Active; 'I' for Inactive)
REMARK    1  A    between atoms: C_1  and  C_2
REMARK    2  A    between atoms: C_2  and  O_3
REMARK    3  A    between atoms: O_3  and  C_4
REMARK    4  A    between atoms: C_4  and  C_6
REMARK    5  A    between atoms: C_10  and  N_11
REMARK    6  A    between atoms: C_12  and  C_14
REMARK    7  A    between atoms: C_14  and  N_15
REMARK    8  A    between atoms: N_18  and  C_21
REMARK    9  A    between atoms: C_21  and  C_22
REMARK   10  A    between atoms: C_31  and  C_35
REMARK                            x       y       z     vdW  Elec       q    Type
REMARK                         _______ _______ _______ _____ _____    ______ ____
ROOT
ATOM      1  N   UNL     1       0.856   3.930  -2.353  0.00  0.00    -0.278 N 
ATOM      2  C   UNL     1       0.903   4.794  -3.387  0.00  0.00    +0.232 C 
ATOM      3  O   UNL     1       0.747   5.981  -3.192  0.00  0.00    -0.274 OA
ATOM      4  H   UNL     1       0.997   2.853  -2.530  0.00  0.00    +0.155 HD
ENDROOT
BRANCH   1   9
ATOM      5  C   UNL     1       0.547   3.671   0.112  0.00  0.00    +0.091 A 
ATOM      6  C   UNL     1       0.293   4.410   1.338  0.00  0.00    -0.021 A 
ATOM      7  C   UNL     1       0.174   5.747   1.190  0.00  0.00    -0.004 A 
ATOM      8  S   UNL     1       0.380   6.031  -0.545  0.00  0.00    -0.077 S 
ATOM      9  C   UNL     1       0.629   4.398  -1.069  0.00  0.00    +0.086 A 
ATOM     10  C   UNL     1      -0.083   6.756   2.267  0.00  0.00    +0.046 C 
ATOM     11  C   UNL     1       0.172   6.091   3.625  0.00  0.00    -0.009 C 
ATOM     12  C   UNL     1      -0.535   4.733   3.656  0.00  0.00    +0.008 C 
ATOM     13  C   UNL     1       0.168   3.758   2.710  0.00  0.00    +0.037 C 
ATOM     14  C   UNL     1      -0.374   6.979   4.744  0.00  0.00    +0.008 C 
BRANCH   5  15
ATOM     15  C   UNL     1       0.704   2.215   0.121  0.00  0.00    +0.342 C 
ATOM     16  O   UNL     1       1.806   1.723   0.267  0.00  0.00    -0.245 OA
BRANCH  15  17
ATOM     17  O   UNL     1      -0.375   1.420  -0.033  0.00  0.00    -0.461 OA
BRANCH  17  19
ATOM     18  C   UNL     1      -1.475  -0.746  -0.201  0.00  0.00    +0.048 C 
ATOM     19  C   UNL     1      -0.145  -0.013  -0.013  0.00  0.00    +0.229 C 
ENDBRANCH  17  19
ENDBRANCH  15  17
ENDBRANCH   5  15
ENDBRANCH   1   9
BRANCH   2  20
ATOM     20  C   UNL     1       1.150   4.286  -4.784  0.00  0.00    +0.180 C 
BRANCH  20  21
ATOM     21  N   UNL     1       1.155   5.416  -5.722  0.00  0.00    -0.298 NA
ATOM     22  C   UNL     1      -0.175   6.035  -5.809  0.00  0.00    +0.066 C 
ATOM     23  C   UNL     1      -0.108   7.253  -6.733  0.00  0.00    -0.063 C 
ATOM     24  N   UNL     1       0.361   6.833  -8.060  0.00  0.00    +0.387 N 
ATOM     25  C   UNL     1       1.691   6.214  -7.974  0.00  0.00    -0.063 C 
ATOM     26  C   UNL     1       1.624   4.995  -7.050  0.00  0.00    +0.066 C 
ATOM     27  H   UNL     1      -0.341   6.078  -8.445  0.00  0.00    -0.081 HD
BRANCH  24  28
ATOM     28  C   UNL     1       0.366   7.963  -8.999  0.00  0.00    +0.019 C 
BRANCH  28  29
ATOM     29  C   UNL     1       0.609   7.454 -10.396  0.00  0.00    +0.199 C 
ATOM     30  O   UNL     1       0.650   6.261 -10.608  0.00  0.00    -0.278 OA
ATOM     31  N   UNL     1       0.780   8.325 -11.411  0.00  0.00    -0.303 N 
ATOM     32  C   UNL     1       0.727   9.774 -11.170  0.00  0.00    +0.107 C 
ATOM     33  C   UNL     1       2.011  10.408 -11.726  0.00  0.00    +0.019 C 
ATOM     34  C   UNL     1       2.168  10.021 -13.199  0.00  0.00    +0.003 C 
ATOM     35  C   UNL     1       2.293   8.501 -13.318  0.00  0.00    +0.019 C 
ATOM     36  C   UNL     1       1.018   7.844 -12.778  0.00  0.00    +0.107 C 
ENDBRANCH  28  29
ENDBRANCH  24  28
ENDBRANCH  20  21
ENDBRANCH   2  20
TORSDOF 8
