REMARK  Name = ZINC58377248
REMARK  8 active torsions:
REMARK  status: ('A' for Active; 'I' for Inactive)
REMARK    1  A    between atoms: C_1  and  C_2
REMARK    2  A    between atoms: C_6  and  C_27
REMARK    3  A    between atoms: C_8  and  O_11
REMARK    4  A    between atoms: O_11  and  C_12
REMARK    5  A    between atoms: C_12  and  C_14
REMARK    6  A    between atoms: C_14  and  N_15
REMARK    7  A    between atoms: C_27  and  C_28
REMARK    8  A    between atoms: C_27  and  C_29
REMARK                            x       y       z     vdW  Elec       q    Type
REMARK                         _______ _______ _______ _____ _____    ______ ____
ROOT
ATOM      1  C   UNL     1       2.825   0.288   3.497  0.00  0.00    +0.327 C 
ATOM      2  O   UNL     1       2.205   1.325   3.486  0.00  0.00    -0.249 OA
ENDROOT
BRANCH   1   3
ATOM      3  O   UNL     1       2.881  -0.473   2.392  0.00  0.00    -0.460 OA
BRANCH   3   9
ATOM      4  C   UNL     1      -0.023   1.513   0.037  0.00  0.00    +0.007 C 
ATOM      5  C   UNL     1       0.003  -0.017   0.020  0.00  0.00    -0.011 C 
ATOM      6  C   UNL     1       0.715  -0.501  -1.244  0.00  0.00    +0.004 C 
ATOM      7  C   UNL     1       2.148   0.033  -1.258  0.00  0.00    +0.007 C 
ATOM      8  C   UNL     1       2.895  -0.479  -0.025  0.00  0.00    +0.032 C 
ATOM      9  C   UNL     1       2.183   0.005   1.240  0.00  0.00    +0.180 C 
ATOM     10  C   UNL     1       0.749  -0.529   1.254  0.00  0.00    +0.048 C 
BRANCH   8  11
ATOM     11  C   UNL     1       4.329   0.055  -0.039  0.00  0.00    -0.011 C 
ATOM     12  C   UNL     1       5.082  -0.538  -1.231  0.00  0.00    +0.007 C 
ATOM     13  C   UNL     1       4.304   1.580  -0.159  0.00  0.00    +0.007 C 
ENDBRANCH   8  11
ENDBRANCH   3   9
ENDBRANCH   1   3
BRANCH   1  14
ATOM     14  C   UNL     1       3.536  -0.152   4.750  0.00  0.00    +0.253 C 
BRANCH  14  15
ATOM     15  N   UNL     1       3.324   0.842   5.806  0.00  0.00    -0.182 N 
ATOM     16  C   UNL     1       4.116   1.958   5.916  0.00  0.00    +0.207 C 
ATOM     17  N   UNL     1       3.716   3.074   6.413  0.00  0.00    -0.237 NA
ATOM     18  C   UNL     1       2.479   3.362   6.906  0.00  0.00    +0.092 A 
ATOM     19  C   UNL     1       2.088   4.687   7.115  0.00  0.00    +0.030 A 
ATOM     20  C   UNL     1       0.832   4.963   7.614  0.00  0.00    +0.002 A 
ATOM     21  C   UNL     1      -0.050   3.938   7.911  0.00  0.00    +0.002 A 
ATOM     22  C   UNL     1       0.327   2.619   7.709  0.00  0.00    +0.031 A 
ATOM     23  C   UNL     1       1.574   2.339   7.213  0.00  0.00    +0.134 A 
ATOM     24  S   UNL     1       2.103   0.678   6.934  0.00  0.00    +0.078 S 
ATOM     25  O   UNL     1       1.030  -0.003   6.296  0.00  0.00    -0.150 OA
ATOM     26  O   UNL     1       2.702   0.222   8.139  0.00  0.00    -0.150 OA
ENDBRANCH  14  15
ENDBRANCH   1  14
TORSDOF 5
