REMARK  Name = ZINC09539650
REMARK  8 active torsions:
REMARK  status: ('A' for Active; 'I' for Inactive)
REMARK    1  A    between atoms: C_1  and  S_2
REMARK    2  A    between atoms: S_2  and  C_3
REMARK    3  A    between atoms: C_3  and  C_4
REMARK    4  A    between atoms: C_4  and  C_5
REMARK    5  A    between atoms: N_9  and  C_13
REMARK    6  A    between atoms: C_13  and  C_14
REMARK    7  A    between atoms: N_19  and  S_22
REMARK    8  A    between atoms: S_22  and  C_25
REMARK                            x       y       z     vdW  Elec       q    Type
REMARK                         _______ _______ _______ _____ _____    ______ ____
ROOT
ATOM      1  C   UNL     1      -2.128   4.516  -1.378  0.00  0.00    +0.234 C 
ATOM      2  O   UNL     1      -1.605   3.937  -2.307  0.00  0.00    -0.274 OA
ATOM      3  N   UNL     1      -3.023   5.495  -1.612  0.00  0.00    -0.298 N 
ATOM      4  C   UNL     1      -3.669   6.201  -0.496  0.00  0.00    +0.125 C 
ATOM      5  C   UNL     1      -3.423   7.709  -0.668  0.00  0.00    +0.128 C 
ATOM      6  N   UNL     1      -3.775   8.088  -2.043  0.00  0.00    -0.174 NA
ATOM      7  C   UNL     1      -3.133   7.379  -3.159  0.00  0.00    +0.128 C 
ATOM      8  C   UNL     1      -3.375   5.874  -2.988  0.00  0.00    +0.125 C 
ENDROOT
BRANCH   6   9
ATOM      9  S   UNL     1      -4.875   9.292  -2.331  0.00  0.00    +0.061 S 
ATOM     10  O   UNL     1      -4.880  10.121  -1.177  0.00  0.00    -0.153 OA
ATOM     11  O   UNL     1      -4.595   9.796  -3.630  0.00  0.00    -0.153 OA
BRANCH   9  12
ATOM     12  C   UNL     1      -6.464   8.536  -2.416  0.00  0.00    +0.106 A 
ATOM     13  C   UNL     1      -6.947   8.089  -3.644  0.00  0.00    +0.029 A 
ATOM     14  C   UNL     1      -8.168   7.496  -3.743  0.00  0.00    +0.010 A 
ATOM     15  C   UNL     1      -8.962   7.342  -2.594  0.00  0.00    -0.018 A 
ATOM     16  C   UNL     1     -10.230   6.741  -2.658  0.00  0.00    +0.008 A 
ATOM     17  C   UNL     1     -10.971   6.608  -1.524  0.00  0.00    +0.001 A 
ATOM     18  C   UNL     1     -10.490   7.060  -0.296  0.00  0.00    +0.001 A 
ATOM     19  C   UNL     1      -9.267   7.647  -0.196  0.00  0.00    +0.008 A 
ATOM     20  C   UNL     1      -8.473   7.802  -1.345  0.00  0.00    -0.016 A 
ATOM     21  C   UNL     1      -7.205   8.403  -1.281  0.00  0.00    +0.037 A 
ENDBRANCH   9  12
ENDBRANCH   6   9
BRANCH   1  22
ATOM     22  C   UNL     1      -1.776   4.138   0.038  0.00  0.00    +0.213 C 
BRANCH  22  26
ATOM     23  C   UNL     1       1.158   1.862   0.001  0.00  0.00    +0.162 C 
ATOM     24  C   UNL     1       0.545   3.248   0.013  0.00  0.00    +0.244 C 
ATOM     25  O   UNL     1       1.132   4.309   0.014  0.00  0.00    -0.273 OA
ATOM     26  N   UNL     1      -0.789   3.056   0.025  0.00  0.00    -0.216 N 
ATOM     27  C   UNL     1      -1.101   1.755   0.016  0.00  0.00    +0.310 C 
ATOM     28  O   UNL     1      -2.240   1.333   0.019  0.00  0.00    -0.252 OA
ATOM     29  N   UNL     1      -0.011   0.966   0.007  0.00  0.00    -0.288 N 
ATOM     30  H   UNL     1       0.002  -0.004   0.002  0.00  0.00    +0.151 HD
BRANCH  23  31
ATOM     31  C   UNL     1       2.015   1.638   1.249  0.00  0.00    +0.042 C 
BRANCH  31  32
ATOM     32  C   UNL     1       2.633   0.239   1.198  0.00  0.00    +0.071 C 
BRANCH  32  34
ATOM     33  C   UNL     1       4.301  -1.706   2.466  0.00  0.00    +0.084 C 
ATOM     34  S   UNL     1       3.649  -0.027   2.677  0.00  0.00    -0.164 S 
ENDBRANCH  32  34
ENDBRANCH  31  32
ENDBRANCH  23  31
ENDBRANCH  22  26
ENDBRANCH   1  22
TORSDOF 7
