REMARK  Name = ZINC22316707
REMARK  9 active torsions:
REMARK  status: ('A' for Active; 'I' for Inactive)
REMARK    1  A    between atoms: C_1  and  O_2
REMARK    2  A    between atoms: O_2  and  C_3
REMARK    3  A    between atoms: C_5  and  C_11
REMARK    4  A    between atoms: C_7  and  O_9
REMARK    5  A    between atoms: O_9  and  C_10
REMARK    6  A    between atoms: C_11  and  C_12
REMARK    7  A    between atoms: C_12  and  C_13
REMARK    8  A    between atoms: N_16  and  C_19
REMARK    9  A    between atoms: C_19  and  N_20
REMARK                            x       y       z     vdW  Elec       q    Type
REMARK                         _______ _______ _______ _____ _____    ______ ____
ROOT
ATOM      1  C   UNL     1       2.160   1.470   1.231  0.00  0.00    -0.014 C 
ATOM      2  C   UNL     1       1.417   1.995  -0.001  0.00  0.00    -0.015 C 
ATOM      3  C   UNL     1      -0.018   1.464   0.010  0.00  0.00    -0.076 C 
ATOM      4  N   UNL     1       0.002  -0.004   0.002  0.00  0.00    +0.390 N 
ATOM      5  C   UNL     1       0.669  -0.533   1.199  0.00  0.00    -0.076 C 
ATOM      6  C   UNL     1       2.125  -0.061   1.224  0.00  0.00    -0.015 C 
ATOM      7  H   UNL     1       0.582  -0.327  -0.875  0.00  0.00    -0.079 HD
ENDROOT
BRANCH   1   8
ATOM      8  C   UNL     1       3.613   1.947   1.195  0.00  0.00    +0.008 C 
BRANCH   8   9
ATOM      9  C   UNL     1       3.652   3.471   1.328  0.00  0.00    +0.035 C 
BRANCH   9  12
ATOM     10  C   UNL     1       6.993   4.696   0.052  0.00  0.00    +0.124 A 
ATOM     11  C   UNL     1       5.675   4.262   0.087  0.00  0.00    +0.049 A 
ATOM     12  C   UNL     1       5.084   3.942   1.294  0.00  0.00    -0.040 A 
ATOM     13  C   UNL     1       5.801   4.057   2.469  0.00  0.00    +0.049 A 
ATOM     14  C   UNL     1       7.120   4.485   2.439  0.00  0.00    +0.124 A 
ATOM     15  C   UNL     1       7.716   4.807   1.230  0.00  0.00    +0.091 A 
BRANCH  10  17
ATOM     16  C   UNL     1       8.934   5.449  -1.096  0.00  0.00    +0.277 C 
ATOM     17  O   UNL     1       7.575   5.010  -1.135  0.00  0.00    -0.495 OA
ENDBRANCH  10  17
BRANCH  14  18
ATOM     18  O   UNL     1       7.827   4.592   3.595  0.00  0.00    -0.495 OA
ATOM     19  C   UNL     1       9.178   5.043   3.490  0.00  0.00    +0.277 C 
ENDBRANCH  14  18
ENDBRANCH   9  12
ENDBRANCH   8   9
ENDBRANCH   1   8
BRANCH   4  20
ATOM     20  C   UNL     1      -1.356  -0.548  -0.128  0.00  0.00    +0.043 C 
BRANCH  20  21
ATOM     21  N   UNL     1      -1.292  -1.887  -0.717  0.00  0.00    -0.241 N 
ATOM     22  C   UNL     1      -1.328  -2.132  -2.048  0.00  0.00    +0.249 C 
ATOM     23  O   UNL     1      -1.352  -1.281  -2.910  0.00  0.00    -0.272 OA
ATOM     24  C   UNL     1      -1.323  -3.627  -2.186  0.00  0.00    +0.138 C 
ATOM     25  C   UNL     1      -0.190  -4.138  -3.067  0.00  0.00    +0.040 C 
ATOM     26  C   UNL     1      -0.074  -3.371  -4.368  0.00  0.00    +0.003 C 
ATOM     27  C   UNL     1      -1.197  -3.640  -5.351  0.00  0.00    +0.005 C 
ATOM     28  C   UNL     1      -2.494  -2.976  -4.894  0.00  0.00    +0.035 C 
ATOM     29  C   UNL     1      -3.184  -3.873  -3.887  0.00  0.00    -0.042 A 
ATOM     30  C   UNL     1      -2.653  -4.161  -2.663  0.00  0.00    -0.012 A 
ATOM     31  C   UNL     1      -3.355  -4.986  -1.788  0.00  0.00    +0.006 A 
ATOM     32  C   UNL     1      -4.574  -5.519  -2.155  0.00  0.00    +0.000 A 
ATOM     33  C   UNL     1      -5.105  -5.231  -3.398  0.00  0.00    +0.000 A 
ATOM     34  C   UNL     1      -4.411  -4.409  -4.263  0.00  0.00    +0.004 A 
ATOM     35  N   UNL     1      -1.097  -4.103  -0.805  0.00  0.00    -0.281 N 
ATOM     36  C   UNL     1      -1.179  -3.019  -0.013  0.00  0.00    +0.308 C 
ATOM     37  O   UNL     1      -1.148  -3.062   1.202  0.00  0.00    -0.252 OA
ATOM     38  H   UNL     1      -0.911  -5.170  -0.614  0.00  0.00    +0.152 HD
ENDBRANCH  20  21
ENDBRANCH   4  20
TORSDOF 7
