REMARK  Name = ZINC23157545
REMARK  6 active torsions:
REMARK  status: ('A' for Active; 'I' for Inactive)
REMARK    1  A    between atoms: C_1  and  C_2
REMARK    2  A    between atoms: C_7  and  O_32
REMARK    3  A    between atoms: C_8  and  C_10
REMARK    4  A    between atoms: C_10  and  C_12
REMARK    5  A    between atoms: C_10  and  N_19
REMARK    6  A    between atoms: N_22  and  C_25
REMARK                            x       y       z     vdW  Elec       q    Type
REMARK                         _______ _______ _______ _____ _____    ______ ____
ROOT
ATOM      1  C   UNL     1       1.669   7.546  -1.035  0.00  0.00    +0.129 C 
ENDROOT
BRANCH   1   9
ATOM      2  C   UNL     1      -0.808  10.318   5.432  0.00  0.00    +0.090 C 
ATOM      3  C   UNL     1      -0.428   9.650   4.136  0.00  0.00    +0.150 A 
ATOM      4  N   UNL     1      -1.055   8.608   3.593  0.00  0.00    -0.205 NA
ATOM      5  C   UNL     1      -0.466   8.285   2.474  0.00  0.00    +0.199 A 
ATOM      6  N   UNL     1       0.583   9.123   2.252  0.00  0.00    -0.173 N 
ATOM      7  N   UNL     1       0.568  10.001   3.368  0.00  0.00    -0.147 NA
ATOM      8  C   UNL     1       1.322   8.918   1.112  0.00  0.00    +0.228 A 
ATOM      9  C   UNL     1       1.003   7.937   0.260  0.00  0.00    +0.076 A 
ATOM     10  S   UNL     1      -0.415   7.206   1.064  0.00  0.00    -0.047 S 
BRANCH   8  11
ATOM     11  O   UNL     1       2.386   9.723   0.844  0.00  0.00    -0.492 OA
ATOM     12  H   UNL     1       2.981   9.563  -0.067  0.00  0.00    +0.294 HD
ENDBRANCH   8  11
ENDBRANCH   1   9
BRANCH   1  13
ATOM     13  C   UNL     1       0.815   7.995  -2.193  0.00  0.00    -0.025 A 
ATOM     14  C   UNL     1      -0.353   7.320  -2.492  0.00  0.00    +0.008 A 
ATOM     15  C   UNL     1      -1.139   7.734  -3.551  0.00  0.00    +0.038 A 
ATOM     16  C   UNL     1      -0.750   8.818  -4.320  0.00  0.00    +0.123 A 
ATOM     17  C   UNL     1       0.424   9.489  -4.023  0.00  0.00    +0.038 A 
ATOM     18  C   UNL     1       1.205   9.077  -2.960  0.00  0.00    +0.008 A 
ATOM     19  F   UNL     1      -1.514   9.219  -5.359  0.00  0.00    -0.205 F 
ENDBRANCH   1  13
BRANCH   1  20
ATOM     20  N   UNL     1       1.830   6.087  -1.082  0.00  0.00    -0.288 NA
ATOM     21  C   UNL     1       2.529   5.674  -2.307  0.00  0.00    +0.104 C 
ATOM     22  C   UNL     1       2.607   4.146  -2.356  0.00  0.00    +0.120 C 
ATOM     23  N   UNL     1       3.308   3.655  -1.161  0.00  0.00    -0.327 N 
ATOM     24  C   UNL     1       2.609   4.069   0.064  0.00  0.00    +0.120 C 
ATOM     25  C   UNL     1       2.531   5.596   0.113  0.00  0.00    +0.104 C 
BRANCH  23  26
ATOM     26  C   UNL     1       3.462   2.266  -1.206  0.00  0.00    +0.030 A 
ATOM     27  C   UNL     1       4.103   1.604  -0.167  0.00  0.00    +0.026 A 
ATOM     28  C   UNL     1       4.253   0.232  -0.213  0.00  0.00    +0.040 A 
ATOM     29  C   UNL     1       3.766  -0.483  -1.294  0.00  0.00    +0.124 A 
ATOM     30  C   UNL     1       3.127   0.175  -2.331  0.00  0.00    +0.040 A 
ATOM     31  C   UNL     1       2.975   1.547  -2.290  0.00  0.00    +0.026 A 
ATOM     32  F   UNL     1       3.915  -1.825  -1.337  0.00  0.00    -0.205 F 
ENDBRANCH  23  26
ENDBRANCH   1  20
TORSDOF 5
