REMARK  Name = ZINC22918546
REMARK  8 active torsions:
REMARK  status: ('A' for Active; 'I' for Inactive)
REMARK    1  A    between atoms: C_1  and  C_2
REMARK    2  A    between atoms: C_2  and  C_3
REMARK    3  A    between atoms: C_3  and  C_4
REMARK    4  A    between atoms: C_4  and  C_28
REMARK    5  A    between atoms: N_7  and  C_11
REMARK    6  A    between atoms: C_11  and  N_12
REMARK    7  A    between atoms: N_15  and  C_18
REMARK    8  A    between atoms: C_18  and  C_19
REMARK                            x       y       z     vdW  Elec       q    Type
REMARK                         _______ _______ _______ _____ _____    ______ ____
ROOT
ATOM      1  C   UNL     1       3.501   2.017   1.237  0.00  0.00    +0.205 C 
ENDROOT
BRANCH   1   5
ATOM      2  C   UNL     1       3.480   5.112   3.290  0.00  0.00    +0.138 C 
ATOM      3  C   UNL     1       3.571   3.605   3.148  0.00  0.00    +0.252 C 
ATOM      4  O   UNL     1       3.712   2.793   4.037  0.00  0.00    -0.272 OA
ATOM      5  N   UNL     1       3.463   3.357   1.827  0.00  0.00    -0.210 N 
ATOM      6  C   UNL     1       3.322   4.485   1.123  0.00  0.00    +0.311 C 
ATOM      7  O   UNL     1       3.209   4.516  -0.087  0.00  0.00    -0.252 OA
ATOM      8  N   UNL     1       3.315   5.581   1.903  0.00  0.00    -0.281 N 
ATOM      9  H   UNL     1       3.216   6.656   1.694  0.00  0.00    +0.152 HD
BRANCH   2  10
ATOM     10  C   UNL     1       4.745   5.665   3.893  0.00  0.00    -0.015 A 
ATOM     11  C   UNL     1       4.853   5.806   5.264  0.00  0.00    +0.006 A 
ATOM     12  C   UNL     1       6.015   6.309   5.818  0.00  0.00    +0.000 A 
ATOM     13  C   UNL     1       7.066   6.681   5.000  0.00  0.00    +0.000 A 
ATOM     14  C   UNL     1       6.956   6.545   3.629  0.00  0.00    +0.000 A 
ATOM     15  C   UNL     1       5.796   6.037   3.075  0.00  0.00    +0.006 A 
ENDBRANCH   2  10
BRANCH   2  16
ATOM     16  C   UNL     1       2.267   5.500   4.137  0.00  0.00    +0.040 C 
BRANCH  16  18
ATOM     17  C   UNL     1      -0.221   5.360   4.323  0.00  0.00    +0.004 C 
ATOM     18  C   UNL     1       0.992   4.972   3.475  0.00  0.00    -0.000 C 
ENDBRANCH  16  18
ENDBRANCH   2  16
ENDBRANCH   1   5
BRANCH   1  19
ATOM     19  N   UNL     1       2.138   1.472   1.171  0.00  0.00    -0.290 NA
ATOM     20  C   UNL     1       1.419   1.992  -0.001  0.00  0.00    +0.067 C 
ATOM     21  C   UNL     1      -0.018   1.465   0.010  0.00  0.00    -0.063 C 
ATOM     22  N   UNL     1       0.002  -0.004   0.002  0.00  0.00    +0.384 N 
ATOM     23  C   UNL     1       0.721  -0.525   1.173  0.00  0.00    -0.063 C 
ATOM     24  C   UNL     1       2.158   0.003   1.162  0.00  0.00    +0.067 C 
ATOM     25  H   UNL     1       0.540  -0.332  -0.900  0.00  0.00    -0.081 HD
BRANCH  22  26
ATOM     26  C   UNL     1      -1.361  -0.549  -0.064  0.00  0.00    -0.043 C 
BRANCH  26  27
ATOM     27  C   UNL     1      -1.297  -2.033  -0.317  0.00  0.00    -0.060 A 
ATOM     28  C   UNL     1      -1.296  -2.512  -1.614  0.00  0.00    +0.005 A 
ATOM     29  C   UNL     1      -1.232  -3.872  -1.851  0.00  0.00    +0.050 A 
ATOM     30  C   UNL     1      -1.180  -4.760  -0.789  0.00  0.00    +0.166 A 
ATOM     31  C   UNL     1      -1.186  -4.277   0.517  0.00  0.00    +0.166 A 
ATOM     32  C   UNL     1      -1.245  -2.913   0.748  0.00  0.00    +0.051 A 
ATOM     33  O   UNL     1      -1.129  -5.338   1.375  0.00  0.00    -0.453 OA
ATOM     34  C   UNL     1      -1.500  -6.487   0.590  0.00  0.00    +0.466 C 
ATOM     35  O   UNL     1      -1.119  -6.123  -0.750  0.00  0.00    -0.453 OA
ENDBRANCH  26  27
ENDBRANCH  22  26
ENDBRANCH   1  19
TORSDOF 7
