REMARK  Name = ZINC16480917
REMARK  9 active torsions:
REMARK  status: ('A' for Active; 'I' for Inactive)
REMARK    1  A    between atoms: C_4  and  C_7
REMARK    2  A    between atoms: C_7  and  C_8
REMARK    3  A    between atoms: C_10  and  C_16
REMARK    4  A    between atoms: C_11  and  O_15
REMARK    5  A    between atoms: N_17  and  C_18
REMARK    6  A    between atoms: C_18  and  C_19
REMARK    7  A    between atoms: C_19  and  N_20
REMARK    8  A    between atoms: N_20  and  C_21
REMARK    9  A    between atoms: C_24  and  N_27
REMARK                            x       y       z     vdW  Elec       q    Type
REMARK                         _______ _______ _______ _____ _____    ______ ____
ROOT
ATOM      1  C   UNL     1       1.179   1.780   0.000  0.00  0.00    -0.041 A 
ATOM      2  C   UNL     1       1.173   3.159   0.008  0.00  0.00    +0.017 A 
ATOM      3  C   UNL     1      -0.042   3.850   0.023  0.00  0.00    +0.033 A 
ATOM      4  C   UNL     1      -1.246   3.133   0.031  0.00  0.00    +0.139 A 
ATOM      5  C   UNL     1      -1.221   1.746   0.017  0.00  0.00    +0.060 A 
ATOM      6  C   UNL     1      -0.013   1.076   0.008  0.00  0.00    +0.023 A 
ATOM      7 BR   UNL     1      -2.842   0.772   0.019  0.00  0.00    -0.046 Br
ENDROOT
BRANCH   3   8
ATOM      8  C   UNL     1      -0.056   5.323   0.032  0.00  0.00    +0.090 C 
ATOM      9  N   UNL     1      -1.183   5.960   0.046  0.00  0.00    -0.388 N 
ATOM     10  H   UNL     1      -2.130   5.400   0.051  0.00  0.00    +0.159 HD
BRANCH   9  11
ATOM     11  C   UNL     1      -1.197   7.425   0.054  0.00  0.00    +0.131 C 
BRANCH  11  12
ATOM     12  C   UNL     1      -1.824   7.936  -1.244  0.00  0.00    +0.122 C 
BRANCH  12  13
ATOM     13  N   UNL     1      -1.838   9.401  -1.236  0.00  0.00    -0.342 N 
ATOM     14  H   UNL     1      -1.433   9.950  -0.373  0.00  0.00    +0.146 HD
BRANCH  13  15
ATOM     15  C   UNL     1      -2.366  10.101  -2.323  0.00  0.00    +0.027 A 
ATOM     16  C   UNL     1      -2.873   9.409  -3.416  0.00  0.00    +0.025 A 
ATOM     17  C   UNL     1      -3.400  10.104  -4.487  0.00  0.00    +0.034 A 
ATOM     18  C   UNL     1      -3.412  11.486  -4.477  0.00  0.00    +0.126 A 
ATOM     19  C   UNL     1      -2.903  12.178  -3.394  0.00  0.00    +0.034 A 
ATOM     20  C   UNL     1      -2.380  11.490  -2.317  0.00  0.00    +0.025 A 
BRANCH  18  21
ATOM     21  N   UNL     1      -3.973  12.228  -5.630  0.00  0.00    +0.056 N 
ATOM     22  O   UNL     1      -3.985  13.446  -5.622  0.00  0.00    -0.126 OA
ATOM     23  O   UNL     1      -4.421  11.620  -6.585  0.00  0.00    -0.126 OA
ENDBRANCH  18  21
ENDBRANCH  13  15
ENDBRANCH  12  13
ENDBRANCH  11  12
ENDBRANCH   9  11
ENDBRANCH   3   8
BRANCH   4  24
ATOM     24  O   UNL     1      -2.432   3.793   0.045  0.00  0.00    -0.505 OA
ATOM     25  H   UNL     1      -3.376   3.228   0.051  0.00  0.00    +0.292 HD
ENDBRANCH   4  24
BRANCH   1  26
ATOM     26  C   UNL     1       2.490   1.037  -0.017  0.00  0.00    +0.070 C 
BRANCH  26  30
ATOM     27  C   UNL     1       3.690   0.357  -4.060  0.00  0.00    +0.000 A 
ATOM     28  C   UNL     1       4.086   1.508  -3.405  0.00  0.00    +0.000 A 
ATOM     29  C   UNL     1       3.698   1.729  -2.097  0.00  0.00    +0.004 A 
ATOM     30  C   UNL     1       2.913   0.797  -1.443  0.00  0.00    -0.043 A 
ATOM     31  C   UNL     1       2.521  -0.357  -2.096  0.00  0.00    +0.004 A 
ATOM     32  C   UNL     1       2.905  -0.574  -3.406  0.00  0.00    +0.000 A 
ENDBRANCH  26  30
ENDBRANCH   1  26
TORSDOF 9
