REMARK  Name = ZINC14024753
REMARK  10 active torsions:
REMARK  status: ('A' for Active; 'I' for Inactive)
REMARK    1  A    between atoms: C_1  and  C_2
REMARK    2  A    between atoms: C_5  and  C_24
REMARK    3  A    between atoms: N_9  and  N_10
REMARK    4  A    between atoms: C_11  and  C_13
REMARK    5  A    between atoms: C_16  and  O_19
REMARK    6  A    between atoms: O_19  and  C_20
REMARK    7  A    between atoms: C_20  and  C_21
REMARK    8  A    between atoms: C_21  and  C_22
REMARK    9  A    between atoms: C_21  and  C_23
REMARK   10  A    between atoms: C_24  and  C_26
REMARK                            x       y       z     vdW  Elec       q    Type
REMARK                         _______ _______ _______ _____ _____    ______ ____
ROOT
ATOM      1  N   UNL     1       0.261  -0.853   3.601  0.00  0.00    -0.203 N 
ATOM      2  C   UNL     1       0.490  -0.219   4.768  0.00  0.00    +0.263 C 
ATOM      3  O   UNL     1       0.683   0.982   4.780  0.00  0.00    -0.268 OA
ATOM      4  H   UNL     1       0.107  -1.811   3.591  0.00  0.00    +0.178 HD
ENDROOT
BRANCH   1  12
ATOM      5  C   UNL     1      -0.018   1.503   0.010  0.00  0.00    +0.045 C 
ATOM      6  C   UNL     1       0.002  -0.004   0.002  0.00  0.00    -0.032 C 
ATOM      7  C   UNL     1       0.005  -0.654  -1.152  0.00  0.00    -0.021 C 
ATOM      8  C   UNL     1       0.016  -2.150  -1.252  0.00  0.00    +0.035 C 
ATOM      9  C   UNL     1       0.556  -2.786   0.028  0.00  0.00    +0.024 C 
ATOM     10  C   UNL     1      -0.225  -2.235   1.229  0.00  0.00    +0.065 C 
ATOM     11  C   UNL     1       0.024  -0.740   1.276  0.00  0.00    +0.062 C 
ATOM     12  N   UNL     1       0.245  -0.129   2.401  0.00  0.00    -0.184 NA
BRANCH   9  13
ATOM     13  C   UNL     1       0.387  -4.282  -0.042  0.00  0.00    -0.076 C 
ATOM     14  C   UNL     1       1.436  -5.064   0.026  0.00  0.00    +0.007 C 
ATOM     15  C   UNL     1      -0.988  -4.879  -0.191  0.00  0.00    +0.039 C 
ENDBRANCH   9  13
ENDBRANCH   1  12
BRANCH   2  16
ATOM     16  C   UNL     1       0.506  -0.982   6.031  0.00  0.00    +0.039 A 
ATOM     17  C   UNL     1       0.290  -2.363   6.018  0.00  0.00    +0.016 A 
ATOM     18  C   UNL     1       0.307  -3.071   7.199  0.00  0.00    +0.046 A 
ATOM     19  C   UNL     1       0.538  -2.415   8.402  0.00  0.00    +0.121 A 
ATOM     20  C   UNL     1       0.753  -1.042   8.419  0.00  0.00    +0.046 A 
ATOM     21  C   UNL     1       0.744  -0.327   7.242  0.00  0.00    +0.016 A 
BRANCH  19  22
ATOM     22  O   UNL     1       0.553  -3.117   9.564  0.00  0.00    -0.492 OA
BRANCH  22  23
ATOM     23  C   UNL     1       0.795  -2.380  10.764  0.00  0.00    +0.232 C 
BRANCH  23  24
ATOM     24  C   UNL     1       0.775  -3.333  11.960  0.00  0.00    +0.020 C 
ATOM     25  C   UNL     1       1.940  -4.318  11.848  0.00  0.00    +0.010 C 
ATOM     26  C   UNL     1       0.910  -2.529  13.255  0.00  0.00    +0.010 C 
ENDBRANCH  23  24
ENDBRANCH  22  23
ENDBRANCH  19  22
ENDBRANCH   2  16
TORSDOF 6
