REMARK  Name = ZINC07989228
REMARK  6 active torsions:
REMARK  status: ('A' for Active; 'I' for Inactive)
REMARK    1  A    between atoms: C_10  and  C_11
REMARK    2  A    between atoms: C_11  and  C_12
REMARK    3  A    between atoms: C_12  and  O_14
REMARK    4  A    between atoms: O_14  and  C_15
REMARK    5  A    between atoms: C_15  and  C_16
REMARK    6  A    between atoms: N_18  and  C_19
REMARK                            x       y       z     vdW  Elec       q    Type
REMARK                         _______ _______ _______ _____ _____    ______ ____
ROOT
ATOM      1  C   UNL     1      -2.287   9.138  -3.054  0.00  0.00    +0.255 C 
ATOM      2  O   UNL     1      -2.385   9.792  -2.036  0.00  0.00    -0.272 OA
ATOM      3  N   UNL     1      -2.199   9.758  -4.247  0.00  0.00    -0.283 N 
ATOM      4  H   UNL     1      -2.054   9.239  -5.053  0.00  0.00    +0.155 HD
ENDROOT
BRANCH   3   5
ATOM      5  C   UNL     1      -2.317  11.152  -4.323  0.00  0.00    +0.036 A 
ATOM      6  C   UNL     1      -2.934  11.737  -5.423  0.00  0.00    +0.025 A 
ATOM      7  C   UNL     1      -3.059  13.110  -5.501  0.00  0.00    +0.029 A 
ATOM      8  C   UNL     1      -2.558  13.909  -4.484  0.00  0.00    +0.067 A 
ATOM      9  C   UNL     1      -1.933  13.325  -3.380  0.00  0.00    +0.069 A 
ATOM     10  C   UNL     1      -1.815  11.946  -3.303  0.00  0.00    +0.051 A 
ATOM     11  N   UNL     1      -1.542  14.365  -2.541  0.00  0.00    -0.306 N 
ATOM     12  H   UNL     1      -1.081  14.268  -1.693  0.00  0.00    +0.170 HD
ATOM     13  C   UNL     1      -1.911  15.529  -3.108  0.00  0.00    +0.325 A 
ATOM     14  O   UNL     1      -1.718  16.633  -2.631  0.00  0.00    -0.247 OA
ATOM     15  N   UNL     1      -2.526  15.288  -4.281  0.00  0.00    -0.306 N 
ATOM     16  H   UNL     1      -2.886  15.959  -4.882  0.00  0.00    +0.170 HD
ENDBRANCH   3   5
BRANCH   1  17
ATOM     17  C   UNL     1      -2.264   7.633  -2.983  0.00  0.00    +0.328 C 
BRANCH  17  18
ATOM     18  O   UNL     1      -2.372   7.212  -1.597  0.00  0.00    -0.455 OA
BRANCH  18  19
ATOM     19  C   UNL     1      -2.366   5.891  -1.360  0.00  0.00    +0.312 C 
ATOM     20  O   UNL     1      -2.275   5.112  -2.279  0.00  0.00    -0.250 OA
BRANCH  19  21
ATOM     21  C   UNL     1      -2.475   5.379   0.053  0.00  0.00    +0.156 C 
BRANCH  21  31
ATOM     22  C   UNL     1       1.182   1.797   0.019  0.00  0.00    +0.001 A 
ATOM     23  C   UNL     1       1.175   3.191   0.026  0.00  0.00    +0.001 A 
ATOM     24  C   UNL     1       0.004   3.886   0.035  0.00  0.00    +0.009 A 
ATOM     25  C   UNL     1      -1.217   3.190   0.037  0.00  0.00    -0.014 A 
ATOM     26  C   UNL     1      -1.209   1.773   0.025  0.00  0.00    -0.018 A 
ATOM     27  C   UNL     1       0.019   1.090   0.021  0.00  0.00    +0.008 A 
ATOM     28  C   UNL     1      -2.430   1.077   0.021  0.00  0.00    +0.008 A 
ATOM     29  C   UNL     1      -3.601   1.772   0.024  0.00  0.00    +0.001 A 
ATOM     30  C   UNL     1      -3.608   3.165   0.031  0.00  0.00    +0.005 A 
ATOM     31  C   UNL     1      -2.445   3.872   0.046  0.00  0.00    -0.029 A 
ENDBRANCH  21  31
ENDBRANCH  19  21
ENDBRANCH  18  19
ENDBRANCH  17  18
ENDBRANCH   1  17
TORSDOF 6
