REMARK  Name = ZINC06320069
REMARK  5 active torsions:
REMARK  status: ('A' for Active; 'I' for Inactive)
REMARK    1  A    between atoms: C_1  and  O_2
REMARK    2  A    between atoms: O_2  and  C_3
REMARK    3  A    between atoms: C_6  and  C_9
REMARK    4  A    between atoms: C_10  and  C_11
REMARK    5  A    between atoms: C_18  and  N_21
REMARK                            x       y       z     vdW  Elec       q    Type
REMARK                         _______ _______ _______ _____ _____    ______ ____
ROOT
ATOM      1  C   UNL     1       4.692   1.494  -0.033  0.00  0.00    +0.065 A 
ATOM      2  C   UNL     1       4.772   0.088  -0.041  0.00  0.00    +0.028 A 
ATOM      3  C   UNL     1       3.631  -0.655  -0.036  0.00  0.00    +0.012 A 
ATOM      4  C   UNL     1       2.393   0.019  -0.021  0.00  0.00    +0.003 A 
ATOM      5  C   UNL     1       1.181  -0.687  -0.013  0.00  0.00    +0.010 A 
ATOM      6  C   UNL     1       0.002  -0.004   0.002  0.00  0.00    +0.003 A 
ATOM      7  C   UNL     1      -0.017   1.389   0.010  0.00  0.00    +0.035 A 
ATOM      8  C   UNL     1       1.140   2.107   0.003  0.00  0.00    +0.152 A 
ATOM      9  C   UNL     1       2.377   1.437  -0.013  0.00  0.00    +0.102 A 
ATOM     10  N   UNL     1       3.526   2.117  -0.019  0.00  0.00    -0.245 NA
ENDROOT
BRANCH   8  11
ATOM     11  N   UNL     1       1.096   3.586   0.010  0.00  0.00    +0.059 N 
ATOM     12  O   UNL     1       0.024   4.164   0.023  0.00  0.00    -0.126 OA
ATOM     13  O   UNL     1       2.132   4.226   0.004  0.00  0.00    -0.126 OA
ENDBRANCH   8  11
BRANCH   1  15
ATOM     14  C   UNL     1       5.872   3.629  -0.031  0.00  0.00    +0.010 C 
ATOM     15  C   UNL     1       5.932   2.286  -0.039  0.00  0.00    +0.028 C 
BRANCH  14  19
ATOM     16  C   UNL     1       9.448   5.913  -0.049  0.00  0.00    +0.120 A 
ATOM     17  C   UNL     1       8.216   6.556  -0.034  0.00  0.00    +0.046 A 
ATOM     18  C   UNL     1       7.053   5.819  -0.028  0.00  0.00    +0.011 A 
ATOM     19  C   UNL     1       7.113   4.422  -0.037  0.00  0.00    -0.025 A 
ATOM     20  C   UNL     1       8.355   3.780  -0.045  0.00  0.00    +0.011 A 
ATOM     21  C   UNL     1       9.513   4.526  -0.058  0.00  0.00    +0.046 A 
BRANCH  16  23
ATOM     22  C   UNL     1      11.825   5.921  -0.070  0.00  0.00    +0.277 C 
ATOM     23  O   UNL     1      10.593   6.645  -0.055  0.00  0.00    -0.495 OA
ENDBRANCH  16  23
ENDBRANCH  14  19
ENDBRANCH   1  15
TORSDOF 4
