REMARK  Name = ZINC50926922
REMARK  6 active torsions:
REMARK  status: ('A' for Active; 'I' for Inactive)
REMARK    1  A    between atoms: C_1  and  C_2
REMARK    2  A    between atoms: C_2  and  C_3
REMARK    3  A    between atoms: C_3  and  N_4
REMARK    4  A    between atoms: C_12  and  C_13
REMARK    5  A    between atoms: C_13  and  C_14
REMARK    6  A    between atoms: C_14  and  C_15
REMARK                            x       y       z     vdW  Elec       q    Type
REMARK                         _______ _______ _______ _____ _____    ______ ____
ROOT
ATOM      1  N   UNL     1       0.738  -1.962  -1.265  0.00  0.00    -0.328 N 
ATOM      2  C   UNL     1       1.715  -2.771  -0.717  0.00  0.00    +0.069 A 
ATOM      3  C   UNL     1       2.900  -2.527  -0.037  0.00  0.00    +0.029 A 
ATOM      4  C   UNL     1       3.675  -3.583   0.392  0.00  0.00    +0.017 A 
ATOM      5  C   UNL     1       3.278  -4.891   0.148  0.00  0.00    +0.020 A 
ATOM      6  C   UNL     1       2.105  -5.152  -0.525  0.00  0.00    +0.045 A 
ATOM      7  C   UNL     1       1.308  -4.092  -0.966  0.00  0.00    +0.090 A 
ATOM      8  N   UNL     1       0.131  -4.024  -1.639  0.00  0.00    -0.232 NA
ATOM      9  C   UNL     1      -0.205  -2.778  -1.808  0.00  0.00    +0.111 A 
ATOM     10 BR   UNL     1       4.356  -6.326   0.745  0.00  0.00    -0.050 Br
ENDROOT
BRANCH   1  11
ATOM     11  C   UNL     1       0.718  -0.497  -1.257  0.00  0.00    +0.123 C 
BRANCH  11  13
ATOM     12  C   UNL     1      -0.019   1.526   0.010  0.00  0.00    +0.005 C 
ATOM     13  C   UNL     1       0.002  -0.004   0.002  0.00  0.00    +0.018 C 
ENDBRANCH  11  13
ENDBRANCH   1  11
BRANCH   9  14
ATOM     14  C   UNL     1      -1.454  -2.308  -2.508  0.00  0.00    +0.073 C 
BRANCH  14  15
ATOM     15  C   UNL     1      -1.167  -2.133  -4.000  0.00  0.00    -0.008 C 
BRANCH  15  16
ATOM     16  C   UNL     1      -2.436  -1.656  -4.711  0.00  0.00    -0.071 C 
ATOM     17  C   UNL     1      -2.185  -1.602  -6.219  0.00  0.00    -0.016 C 
ATOM     18  C   UNL     1      -3.457  -1.124  -6.926  0.00  0.00    -0.003 C 
ATOM     19  C   UNL     1      -3.864   0.238  -6.356  0.00  0.00    -0.019 C 
ATOM     20  C   UNL     1      -4.053   0.116  -4.843  0.00  0.00    -0.082 C 
ATOM     21  N   UNL     1      -2.795  -0.319  -4.223  0.00  0.00    +0.381 N 
ATOM     22  H   UNL     1      -2.907  -0.346  -3.221  0.00  0.00    -0.086 HD
ATOM     23  H   UNL     1      -2.062   0.333  -4.460  0.00  0.00    -0.086 HD
ENDBRANCH  15  16
ENDBRANCH  14  15
ENDBRANCH   9  14
TORSDOF 5
