REMARK  Name = ZINC26148868
REMARK  4 active torsions:
REMARK  status: ('A' for Active; 'I' for Inactive)
REMARK    1  A    between atoms: C_7  and  C_11
REMARK    2  A    between atoms: C_11  and  C_13
REMARK    3  A    between atoms: C_11  and  C_29
REMARK    4  A    between atoms: C_13  and  N_14
REMARK                            x       y       z     vdW  Elec       q    Type
REMARK                         _______ _______ _______ _____ _____    ______ ____
ROOT
ATOM      1  C   UNL     1       4.301   4.596   1.236  0.00  0.00    +0.119 C 
ENDROOT
BRANCH   1   2
ATOM      2  N   UNL     1       5.729   4.273   1.281  0.00  0.00    -0.298 N 
ATOM      3  C   UNL     1       6.490   4.724   2.298  0.00  0.00    +0.302 C 
ATOM      4  O   UNL     1       6.013   5.473   3.128  0.00  0.00    -0.253 OA
ATOM      5  N   UNL     1       7.779   4.343   2.395  0.00  0.00    -0.283 N 
ATOM      6  C   UNL     1       8.598   4.739   3.550  0.00  0.00    +0.128 C 
ATOM      7  C   UNL     1       9.261   3.478   4.126  0.00  0.00    +0.125 C 
ATOM      8  N   UNL     1       9.991   2.783   3.057  0.00  0.00    -0.311 N 
ATOM      9  C   UNL     1       9.079   2.318   2.004  0.00  0.00    +0.125 C 
ATOM     10  C   UNL     1       8.407   3.527   1.344  0.00  0.00    +0.128 C 
ATOM     11  C   UNL     1      10.740   1.730   3.568  0.00  0.00    +0.140 A 
ATOM     12  C   UNL     1      11.670   1.960   4.580  0.00  0.00    +0.154 A 
ATOM     13  N   UNL     1      12.378   0.957   5.063  0.00  0.00    -0.258 NA
ATOM     14  C   UNL     1      12.207  -0.265   4.586  0.00  0.00    +0.130 A 
ATOM     15  C   UNL     1      11.287  -0.497   3.582  0.00  0.00    +0.132 A 
ATOM     16  N   UNL     1      10.569   0.501   3.097  0.00  0.00    -0.237 NA
ATOM     17  H   UNL     1       6.181   3.664   0.484  0.00  0.00    +0.150 HD
ENDBRANCH   1   2
BRANCH   1  18
ATOM     18  C   UNL     1       3.675   3.968  -0.011  0.00  0.00    +0.075 C 
BRANCH  18  25
ATOM     19  C   UNL     1      -0.010   1.071   0.008  0.00  0.00    +0.001 A 
ATOM     20  C   UNL     1      -1.225   1.742   0.018  0.00  0.00    +0.002 A 
ATOM     21  C   UNL     1      -1.268   3.118   0.033  0.00  0.00    +0.026 A 
ATOM     22  C   UNL     1      -0.082   3.846   0.026  0.00  0.00    +0.047 A 
ATOM     23  C   UNL     1       1.147   3.162   0.009  0.00  0.00    +0.003 A 
ATOM     24  C   UNL     1       1.167   1.766   0.000  0.00  0.00    +0.010 A 
ATOM     25  C   UNL     1       2.186   4.195   0.006  0.00  0.00    -0.013 A 
ATOM     26  C   UNL     1       1.558   5.382   0.020  0.00  0.00    +0.088 A 
ATOM     27  N   UNL     1       0.203   5.193   0.032  0.00  0.00    -0.360 N 
ATOM     28  H   UNL     1      -0.615   5.929   0.045  0.00  0.00    +0.165 HD
ENDBRANCH  18  25
BRANCH  18  29
ATOM     29  C   UNL     1       4.266   4.604  -1.244  0.00  0.00    -0.001 A 
ATOM     30  C   UNL     1       4.961   4.024  -2.253  0.00  0.00    +0.012 A 
ATOM     31  C   UNL     1       5.409   4.812  -3.296  0.00  0.00    +0.008 A 
ATOM     32  C   UNL     1       5.150   6.142  -3.275  0.00  0.00    +0.045 A 
ATOM     33  S   UNL     1       4.239   6.316  -1.749  0.00  0.00    -0.101 S 
ENDBRANCH  18  29
ENDBRANCH   1  18
TORSDOF 4
