REMARK  Name = ZINC52180061
REMARK  3 active torsions:
REMARK  status: ('A' for Active; 'I' for Inactive)
REMARK    1  A    between atoms: N_12  and  C_13
REMARK    2  A    between atoms: C_13  and  C_14
REMARK    3  A    between atoms: C_14  and  C_20
REMARK                            x       y       z     vdW  Elec       q    Type
REMARK                         _______ _______ _______ _____ _____    ______ ____
ROOT
ATOM      1  C   UNL     1       1.373   1.511  -2.192  0.00  0.00    +0.000 C 
ATOM      2  C   UNL     1       2.510   2.058  -1.328  0.00  0.00    -0.002 C 
ATOM      3  C   UNL     1       3.845   1.849  -2.047  0.00  0.00    -0.015 C 
ATOM      4  C   UNL     1       4.063   0.354  -2.290  0.00  0.00    -0.065 C 
ATOM      5  C   UNL     1       2.927  -0.191  -3.158  0.00  0.00    -0.025 C 
ATOM      6  C   UNL     1       1.592   0.017  -2.439  0.00  0.00    +0.002 C 
ATOM      7  C   UNL     1       3.147  -1.687  -3.398  0.00  0.00    +0.000 C 
ATOM      8  C   UNL     1       3.240  -2.403  -2.048  0.00  0.00    -0.018 C 
ATOM      9  C   UNL     1       4.365  -1.776  -1.222  0.00  0.00    -0.078 C 
ATOM     10  N   UNL     1       4.082  -0.353  -1.004  0.00  0.00    +0.382 N 
ATOM     11  H   UNL     1       3.185  -0.254  -0.553  0.00  0.00    -0.081 HD
ENDROOT
BRANCH  10  12
ATOM     12  C   UNL     1       5.124   0.225  -0.144  0.00  0.00    -0.064 C 
BRANCH  12  13
ATOM     13  C   UNL     1       4.867  -0.176   1.310  0.00  0.00    +0.015 C 
ATOM     14  C   UNL     1       3.435   0.203   1.700  0.00  0.00    +0.040 C 
ATOM     15  C   UNL     1       3.212  -0.131   3.178  0.00  0.00    +0.160 C 
ATOM     16  O   UNL     1       4.175   0.564   3.972  0.00  0.00    -0.380 OA
ATOM     17  C   UNL     1       5.531   0.215   3.684  0.00  0.00    +0.160 C 
ATOM     18  C   UNL     1       5.847   0.562   2.226  0.00  0.00    +0.040 C 
BRANCH  13  19
ATOM     19  C   UNL     1       5.056  -1.663   1.463  0.00  0.00    +0.228 C 
ATOM     20  O   UNL     1       6.151  -2.111   1.706  0.00  0.00    -0.301 OA
ENDBRANCH  13  19
ENDBRANCH  12  13
ENDBRANCH  10  12
TORSDOF 3
