REMARK  Name = ZINC44453232
REMARK  15 active torsions:
REMARK  status: ('A' for Active; 'I' for Inactive)
REMARK    1  A    between atoms: C_1  and  C_2
REMARK    2  A    between atoms: C_2  and  C_3
REMARK    3  A    between atoms: C_2  and  C_4
REMARK    4  A    between atoms: C_4  and  N_5
REMARK    5  A    between atoms: N_5  and  C_6
REMARK    6  A    between atoms: N_5  and  S_10
REMARK    7  A    between atoms: C_6  and  C_7
REMARK    8  A    between atoms: C_7  and  C_8
REMARK    9  A    between atoms: C_7  and  C_9
REMARK   10  A    between atoms: S_10  and  C_13
REMARK   11  A    between atoms: C_16  and  C_19
REMARK   12  A    between atoms: N_21  and  C_22
REMARK   13  A    between atoms: C_23  and  C_27
REMARK   14  A    between atoms: N_29  and  N_30
REMARK   15  A    between atoms: C_31  and  C_33
REMARK                            x       y       z     vdW  Elec       q    Type
REMARK                         _______ _______ _______ _____ _____    ______ ____
ROOT
ATOM      1  C   UNL     1      -0.141  -3.122  -1.336  0.00  0.00    +0.106 A 
ATOM      2  C   UNL     1       0.511  -2.401  -2.320  0.00  0.00    +0.029 A 
ATOM      3  C   UNL     1       1.760  -2.793  -2.754  0.00  0.00    +0.015 A 
ATOM      4  C   UNL     1       2.366  -3.921  -2.197  0.00  0.00    +0.037 A 
ATOM      5  C   UNL     1       1.703  -4.644  -1.205  0.00  0.00    +0.015 A 
ATOM      6  C   UNL     1       0.456  -4.238  -0.777  0.00  0.00    +0.029 A 
ENDROOT
BRANCH   4   7
ATOM      7  C   UNL     1       3.705  -4.348  -2.658  0.00  0.00    +0.249 C 
ATOM      8  O   UNL     1       4.280  -3.716  -3.522  0.00  0.00    -0.270 OA
ATOM      9  N   UNL     1       4.287  -5.437  -2.119  0.00  0.00    -0.275 N 
ATOM     10  H   UNL     1       3.828  -5.941  -1.429  0.00  0.00    +0.156 HD
BRANCH   9  11
ATOM     11  C   UNL     1       5.541  -5.837  -2.550  0.00  0.00    +0.084 A 
ATOM     12  C   UNL     1       6.285  -6.926  -2.117  0.00  0.00    +0.067 A 
ATOM     13  C   UNL     1       7.575  -7.116  -2.741  0.00  0.00    +0.022 A 
ATOM     14  C   UNL     1       7.913  -6.210  -3.677  0.00  0.00    +0.048 A 
ATOM     15  S   UNL     1       6.506  -5.121  -3.720  0.00  0.00    -0.081 S 
BRANCH  12  16
ATOM     16  C   UNL     1       5.788  -7.836  -1.081  0.00  0.00    +0.262 C 
ATOM     17  O   UNL     1       4.697  -7.646  -0.576  0.00  0.00    -0.269 OA
ATOM     18  N   UNL     1       6.540  -8.883  -0.686  0.00  0.00    -0.230 N 
ATOM     19  H   UNL     1       7.410  -9.034  -1.089  0.00  0.00    +0.173 HD
BRANCH  18  20
ATOM     20  N   UNL     1       6.066  -9.752   0.304  0.00  0.00    -0.234 N 
ATOM     21  C   UNL     1       6.817 -10.799   0.698  0.00  0.00    +0.226 C 
ATOM     22  O   UNL     1       7.905 -10.988   0.195  0.00  0.00    -0.275 OA
ATOM     23  C   UNL     1       6.307 -11.735   1.764  0.00  0.00    +0.110 C 
ATOM     24  H   UNL     1       5.196  -9.601   0.706  0.00  0.00    +0.173 HD
ENDBRANCH  18  20
ENDBRANCH  12  16
ENDBRANCH   9  11
ENDBRANCH   4   7
BRANCH   1  25
ATOM     25  S   UNL     1      -1.737  -2.614  -0.788  0.00  0.00    +0.061 S 
ATOM     26  O   UNL     1      -2.365  -3.766  -0.244  0.00  0.00    -0.153 OA
ATOM     27  O   UNL     1      -2.311  -1.863  -1.849  0.00  0.00    -0.153 OA
BRANCH  25  28
ATOM     28  N   UNL     1      -1.510  -1.560   0.469  0.00  0.00    -0.176 NA
BRANCH  28  29
ATOM     29  C   UNL     1      -1.382  -0.124   0.207  0.00  0.00    +0.112 C 
BRANCH  29  31
ATOM     30  C   UNL     1       0.226   1.704  -0.353  0.00  0.00    +0.008 C 
ATOM     31  C   UNL     1       0.098   0.238   0.065  0.00  0.00    -0.001 C 
ATOM     32  C   UNL     1       0.806   0.025   1.405  0.00  0.00    +0.008 C 
ENDBRANCH  29  31
ENDBRANCH  28  29
BRANCH  28  33
ATOM     33  C   UNL     1      -1.438  -2.064   1.843  0.00  0.00    +0.112 C 
BRANCH  33  34
ATOM     34  C   UNL     1      -2.774  -1.818   2.547  0.00  0.00    -0.001 C 
ATOM     35  C   UNL     1      -3.867  -2.647   1.869  0.00  0.00    +0.008 C 
ATOM     36  C   UNL     1      -2.659  -2.230   4.016  0.00  0.00    +0.008 C 
ENDBRANCH  33  34
ENDBRANCH  28  33
ENDBRANCH  25  28
ENDBRANCH   1  25
TORSDOF 10
