REMARK  Name = ZINC12164193
REMARK  8 active torsions:
REMARK  status: ('A' for Active; 'I' for Inactive)
REMARK    1  A    between atoms: C_1  and  C_2
REMARK    2  A    between atoms: C_2  and  N_3
REMARK    3  A    between atoms: C_5  and  C_9
REMARK    4  A    between atoms: C_6  and  C_8
REMARK    5  A    between atoms: C_9  and  N_65
REMARK    6  A    between atoms: C_12  and  C_15
REMARK    7  A    between atoms: C_15  and  C_31
REMARK    8  A    between atoms: N_18  and  C_22
REMARK                            x       y       z     vdW  Elec       q    Type
REMARK                         _______ _______ _______ _____ _____    ______ ____
ROOT
ATOM      1  C   UNL     1      -7.938   0.082   3.829  0.00  0.00    +0.112 C 
ATOM      2  C   UNL     1      -8.387  -0.477   2.494  0.00  0.00    +0.247 C 
ATOM      3  O   UNL     1      -8.047  -0.102   1.392  0.00  0.00    -0.273 OA
ATOM      4  N   UNL     1      -9.242  -1.477   2.786  0.00  0.00    -0.221 N 
ATOM      5  C   UNL     1      -9.394  -1.626   4.106  0.00  0.00    +0.310 C 
ATOM      6  O   UNL     1     -10.115  -2.463   4.613  0.00  0.00    -0.252 OA
ATOM      7  N   UNL     1      -8.660  -0.746   4.811  0.00  0.00    -0.285 N 
ATOM      8  C   UNL     1      -8.340   1.552   3.960  0.00  0.00    +0.042 C 
ATOM      9  H   UNL     1      -8.615  -0.671   5.777  0.00  0.00    +0.151 HD
ENDROOT
BRANCH   4  10
ATOM     10  C   UNL     1      -9.921  -2.299   1.781  0.00  0.00    +0.094 C 
ATOM     11  C   UNL     1     -11.451  -2.251   1.975  0.00  0.00    +0.058 C 
ATOM     12  C   UNL     1     -11.937  -3.642   1.614  0.00  0.00    -0.042 A 
ATOM     13  C   UNL     1     -13.209  -4.093   1.301  0.00  0.00    +0.004 A 
ATOM     14  C   UNL     1     -13.418  -5.424   0.997  0.00  0.00    +0.000 A 
ATOM     15  C   UNL     1     -12.356  -6.309   1.004  0.00  0.00    +0.000 A 
ATOM     16  C   UNL     1     -11.088  -5.860   1.316  0.00  0.00    +0.004 A 
ATOM     17  C   UNL     1     -10.875  -4.526   1.621  0.00  0.00    -0.042 A 
ATOM     18  C   UNL     1      -9.602  -3.795   1.991  0.00  0.00    +0.058 C 
ENDBRANCH   4  10
BRANCH   1  21
ATOM     19  C   UNL     1      -4.194   0.465   3.021  0.00  0.00    -0.078 C 
ATOM     20  C   UNL     1      -5.706   0.575   2.816  0.00  0.00    -0.013 C 
ATOM     21  C   UNL     1      -6.426  -0.079   3.999  0.00  0.00    +0.018 C 
ATOM     22  C   UNL     1      -5.981   0.603   5.296  0.00  0.00    -0.013 C 
ATOM     23  C   UNL     1      -4.461   0.492   5.430  0.00  0.00    -0.078 C 
ATOM     24  N   UNL     1      -3.828   1.161   4.273  0.00  0.00    +0.382 N 
ATOM     25  H   UNL     1      -4.162   2.131   4.225  0.00  0.00    -0.081 HD
BRANCH  24  26
ATOM     26  C   UNL     1      -2.359   1.168   4.436  0.00  0.00    -0.040 C 
BRANCH  26  29
ATOM     27  N   UNL     1      -0.698   1.558   1.213  0.00  0.00    -0.271 N 
ATOM     28  C   UNL     1      -1.151   0.786   2.223  0.00  0.00    +0.110 A 
ATOM     29  C   UNL     1      -1.721   1.601   3.142  0.00  0.00    -0.024 A 
ATOM     30  C   UNL     1      -1.612   2.916   2.677  0.00  0.00    +0.061 A 
ATOM     31  N   UNL     1      -0.994   2.892   1.524  0.00  0.00    -0.176 NA
ATOM     32  C   UNL     1      -2.114   4.147   3.386  0.00  0.00    +0.068 C 
BRANCH  27  34
ATOM     33  C   UNL     1      -0.753   1.593  -1.232  0.00  0.00    +0.029 C 
ATOM     34  C   UNL     1      -0.013   1.086   0.008  0.00  0.00    +0.140 C 
ENDBRANCH  27  34
ENDBRANCH  26  29
ENDBRANCH  24  26
ENDBRANCH   1  21
TORSDOF 5
