REMARK  Name = ZINC09721269
REMARK  9 active torsions:
REMARK  status: ('A' for Active; 'I' for Inactive)
REMARK    1  A    between atoms: C_1  and  C_2
REMARK    2  A    between atoms: C_4  and  C_31
REMARK    3  A    between atoms: C_5  and  C_9
REMARK    4  A    between atoms: C_6  and  C_8
REMARK    5  A    between atoms: C_9  and  C_11
REMARK    6  A    between atoms: C_11  and  C_12
REMARK    7  A    between atoms: C_12  and  O_30
REMARK    8  A    between atoms: N_19  and  C_22
REMARK    9  A    between atoms: C_22  and  C_23
REMARK                            x       y       z     vdW  Elec       q    Type
REMARK                         _______ _______ _______ _____ _____    ______ ____
ROOT
ATOM      1  C   UNL     1      -4.693   3.670   6.028  0.00  0.00    +0.175 C 
ATOM      2  C   UNL     1      -6.190   3.873   6.000  0.00  0.00    +0.015 A 
ATOM      3  C   UNL     1      -7.251   3.003   5.881  0.00  0.00    +0.009 A 
ATOM      4  C   UNL     1      -8.547   3.490   5.888  0.00  0.00    +0.000 A 
ATOM      5  C   UNL     1      -8.770   4.849   6.014  0.00  0.00    +0.002 A 
ATOM      6  C   UNL     1      -7.709   5.722   6.133  0.00  0.00    +0.024 A 
ATOM      7  C   UNL     1      -6.402   5.240   6.127  0.00  0.00    +0.043 A 
ATOM      8  N   UNL     1      -5.182   5.909   6.231  0.00  0.00    -0.264 N 
ATOM      9  C   UNL     1      -4.135   5.069   6.182  0.00  0.00    +0.257 C 
ATOM     10  O   UNL     1      -2.963   5.373   6.248  0.00  0.00    -0.272 OA
ENDROOT
BRANCH   1  11
ATOM     11  O   UNL     1      -4.315   2.855   7.139  0.00  0.00    -0.374 OA
ATOM     12  H   UNL     1      -3.362   2.718   7.221  0.00  0.00    +0.211 HD
ENDBRANCH   1  11
BRANCH   1  13
ATOM     13  C   UNL     1      -4.213   3.042   4.717  0.00  0.00    +0.129 C 
BRANCH  13  14
ATOM     14  C   UNL     1      -2.710   2.938   4.731  0.00  0.00    +0.167 C 
ATOM     15  O   UNL     1      -2.091   3.228   5.733  0.00  0.00    -0.292 OA
BRANCH  14  20
ATOM     16  C   UNL     1       0.090   1.170   0.032  0.00  0.00    +0.044 C 
ATOM     17  C   UNL     1      -0.643   1.634   1.264  0.00  0.00    -0.050 A 
ATOM     18  C   UNL     1      -1.154   0.703   2.152  0.00  0.00    +0.007 A 
ATOM     19  C   UNL     1      -1.822   1.119   3.284  0.00  0.00    -0.039 A 
ATOM     20  C   UNL     1      -1.992   2.486   3.528  0.00  0.00    +0.023 A 
ATOM     21  C   UNL     1      -1.478   3.420   2.623  0.00  0.00    -0.039 A 
ATOM     22  C   UNL     1      -0.808   2.988   1.499  0.00  0.00    +0.007 A 
ATOM     23  C   UNL     1      -1.656   4.895   2.877  0.00  0.00    +0.044 C 
ATOM     24  C   UNL     1      -2.372   0.104   4.253  0.00  0.00    +0.044 C 
ENDBRANCH  14  20
ENDBRANCH  13  14
ENDBRANCH   1  13
BRANCH   8  25
ATOM     25  C   UNL     1      -5.057   7.361   6.376  0.00  0.00    +0.148 C 
BRANCH  25  26
ATOM     26  C   UNL     1      -4.970   7.997   5.012  0.00  0.00    -0.030 A 
ATOM     27  C   UNL     1      -3.737   8.188   4.417  0.00  0.00    +0.006 A 
ATOM     28  C   UNL     1      -3.656   8.766   3.164  0.00  0.00    +0.020 A 
ATOM     29  C   UNL     1      -4.809   9.163   2.510  0.00  0.00    +0.041 A 
ATOM     30  C   UNL     1      -6.043   8.976   3.109  0.00  0.00    +0.020 A 
ATOM     31  C   UNL     1      -6.122   8.393   4.359  0.00  0.00    +0.006 A 
ATOM     32 CL   UNL     1      -4.709   9.894   0.939  0.00  0.00    -0.084 Cl
ENDBRANCH  25  26
ENDBRANCH   8  25
TORSDOF 6
