REMARK  Name = ZINC35316702
REMARK  7 active torsions:
REMARK  status: ('A' for Active; 'I' for Inactive)
REMARK    1  A    between atoms: C_1  and  C_2
REMARK    2  A    between atoms: C_2  and  C_3
REMARK    3  A    between atoms: C_2  and  C_4
REMARK    4  A    between atoms: C_2  and  C_5
REMARK    5  A    between atoms: C_11  and  C_15
REMARK    6  A    between atoms: N_17  and  C_18
REMARK    7  A    between atoms: N_24  and  C_28
REMARK                            x       y       z     vdW  Elec       q    Type
REMARK                         _______ _______ _______ _____ _____    ______ ____
ROOT
ATOM      1  C   UNL     1       4.978   0.845  -2.648  0.00  0.00    +0.269 C 
ATOM      2  O   UNL     1       4.631   1.627  -1.785  0.00  0.00    -0.268 OA
ATOM      3  N   UNL     1       6.131   1.045  -3.316  0.00  0.00    -0.280 N 
ATOM      4  H   UNL     1       6.442   0.387  -3.956  0.00  0.00    +0.155 HD
ENDROOT
BRANCH   3   5
ATOM      5  C   UNL     1       6.880   2.204  -3.086  0.00  0.00    +0.035 A 
ATOM      6  C   UNL     1       6.937   2.756  -1.811  0.00  0.00    +0.024 A 
ATOM      7  C   UNL     1       7.675   3.899  -1.585  0.00  0.00    +0.007 A 
ATOM      8  C   UNL     1       8.364   4.506  -2.623  0.00  0.00    -0.026 A 
ATOM      9  C   UNL     1       8.312   3.956  -3.895  0.00  0.00    +0.034 A 
ATOM     10  C   UNL     1       7.573   2.803  -4.127  0.00  0.00    +0.046 A 
ATOM     11  N   UNL     1       9.007   4.543  -4.959  0.00  0.00    -0.333 N 
ATOM     12  C   UNL     1       9.542   5.902  -4.794  0.00  0.00    +0.105 C 
ATOM     13  C   UNL     1      10.214   5.977  -3.417  0.00  0.00    +0.024 C 
ATOM     14  C   UNL     1       9.155   5.756  -2.338  0.00  0.00    +0.038 C 
ATOM     15  C   UNL     1       9.196   3.816  -6.216  0.00  0.00    +0.129 C 
ENDBRANCH   3   5
BRANCH   1  21
ATOM     16  C   UNL     1       0.719  -0.501  -1.257  0.00  0.00    -0.001 C 
ATOM     17  C   UNL     1       0.744  -2.032  -1.257  0.00  0.00    +0.010 C 
ATOM     18  C   UNL     1       1.234  -2.541  -2.618  0.00  0.00    +0.055 C 
ATOM     19  C   UNL     1       2.508  -1.814  -2.965  0.00  0.00    +0.040 A 
ATOM     20  C   UNL     1       2.915  -0.670  -2.360  0.00  0.00    +0.006 A 
ATOM     21  C   UNL     1       4.136  -0.327  -2.964  0.00  0.00    +0.151 A 
ATOM     22  N   UNL     1       4.383  -1.256  -3.872  0.00  0.00    -0.169 NA
ATOM     23  N   UNL     1       3.438  -2.130  -3.882  0.00  0.00    -0.281 N 
ATOM     24  H   UNL     1       3.402  -2.904  -4.465  0.00  0.00    +0.189 HD
ATOM     25  C   UNL     1       2.157   0.035  -1.269  0.00  0.00    +0.043 C 
BRANCH  16  27
ATOM     26  C   UNL     1      -0.026   1.527  -0.004  0.00  0.00    +0.011 C 
ATOM     27  C   UNL     1      -0.001  -0.002  -0.003  0.00  0.00    -0.035 C 
ATOM     28  C   UNL     1       0.738  -0.500   1.241  0.00  0.00    +0.011 C 
ATOM     29  C   UNL     1      -1.435  -0.536   0.009  0.00  0.00    +0.011 C 
ENDBRANCH  16  27
ENDBRANCH   1  21
TORSDOF 3
