REMARK  Name = ZINC02635448
REMARK  4 active torsions:
REMARK  status: ('A' for Active; 'I' for Inactive)
REMARK    1  A    between atoms: C_5  and  N_7
REMARK    2  A    between atoms: C_11  and  S_13
REMARK    3  A    between atoms: S_13  and  C_14
REMARK    4  A    between atoms: C_14  and  C_15
REMARK                            x       y       z     vdW  Elec       q    Type
REMARK                         _______ _______ _______ _____ _____    ______ ____
ROOT
ATOM      1  N   UNL     1       1.161   3.485   0.009  0.00  0.00    -0.290 N 
ATOM      2  C   UNL     1      -0.047   4.167  -0.081  0.00  0.00    +0.187 A 
ATOM      3  N   UNL     1      -1.276   3.691  -0.097  0.00  0.00    -0.125 NA
ATOM      4  N   UNL     1      -2.344   4.553  -0.189  0.00  0.00    -0.133 NA
ATOM      5  C   UNL     1      -2.132   5.853  -0.272  0.00  0.00    +0.160 A 
ATOM      6  S   UNL     1      -0.348   5.923  -0.215  0.00  0.00    -0.024 S 
ATOM      7  H   UNL     1       1.998   3.967  -0.081  0.00  0.00    +0.154 HD
ENDROOT
BRANCH   1  12
ATOM      8  C   UNL     1      -0.000   0.076   0.748  0.00  0.00    +0.002 A 
ATOM      9  C   UNL     1       1.186  -0.630   0.664  0.00  0.00    +0.003 A 
ATOM     10  C   UNL     1       2.365   0.026   0.364  0.00  0.00    +0.040 A 
ATOM     11  C   UNL     1       2.362   1.392   0.146  0.00  0.00    +0.144 A 
ATOM     12  C   UNL     1       1.170   2.104   0.229  0.00  0.00    +0.068 A 
ATOM     13  C   UNL     1      -0.012   1.440   0.531  0.00  0.00    +0.026 A 
ATOM     14  F   UNL     1       3.514   2.034  -0.146  0.00  0.00    -0.204 F 
ENDBRANCH   1  12
BRANCH   5  15
ATOM     15  S   UNL     1      -3.297   7.168  -0.406  0.00  0.00    -0.091 S 
BRANCH  15  16
ATOM     16  C   UNL     1      -4.906   6.331  -0.403  0.00  0.00    +0.132 C 
BRANCH  16  17
ATOM     17  C   UNL     1      -6.006   7.355  -0.513  0.00  0.00    +0.059 A 
ATOM     18  C   UNL     1      -6.677   7.521  -1.710  0.00  0.00    +0.094 A 
ATOM     19  C   UNL     1      -7.697   8.476  -1.786  0.00  0.00    +0.259 A 
ATOM     20  O   UNL     1      -8.312   8.645  -2.828  0.00  0.00    -0.267 OA
ATOM     21  N   UNL     1      -7.988   9.212  -0.692  0.00  0.00    -0.267 N 
ATOM     22  C   UNL     1      -8.975  10.149  -0.753  0.00  0.00    +0.111 A 
ATOM     23  C   UNL     1      -9.284  10.898   0.330  0.00  0.00    +0.035 A 
ATOM     24  C   UNL     1      -8.587  10.717   1.534  0.00  0.00    +0.020 A 
ATOM     25  C   UNL     1      -7.598   9.782   1.604  0.00  0.00    +0.048 A 
ATOM     26  C   UNL     1      -7.292   9.012   0.467  0.00  0.00    +0.141 A 
ATOM     27  N   UNL     1      -6.325   8.099   0.534  0.00  0.00    -0.233 NA
ATOM     28 BR   UNL     1     -10.657  12.193   0.221  0.00  0.00    -0.049 Br
ENDBRANCH  16  17
ENDBRANCH  15  16
ENDBRANCH   5  15
TORSDOF 4
