REMARK  Name = ZINC41637257
REMARK  5 active torsions:
REMARK  status: ('A' for Active; 'I' for Inactive)
REMARK    1  A    between atoms: C_1  and  C_2
REMARK    2  A    between atoms: C_8  and  C_10
REMARK    3  A    between atoms: C_10  and  C_12
REMARK    4  A    between atoms: C_10  and  N_18
REMARK    5  A    between atoms: C_23  and  C_25
REMARK                            x       y       z     vdW  Elec       q    Type
REMARK                         _______ _______ _______ _____ _____    ______ ____
ROOT
ATOM      1  C   UNL     1       0.398  -5.920  -0.065  0.00  0.00    +0.006 C 
ENDROOT
BRANCH   1   9
ATOM      2  C   UNL     1       2.222   1.137  -1.647  0.00  0.00    +0.090 C 
ATOM      3  C   UNL     1       1.891  -0.324  -1.482  0.00  0.00    +0.150 A 
ATOM      4  N   UNL     1       1.982  -1.248  -2.436  0.00  0.00    -0.205 NA
ATOM      5  C   UNL     1       1.620  -2.405  -1.952  0.00  0.00    +0.199 A 
ATOM      6  N   UNL     1       1.274  -2.264  -0.643  0.00  0.00    -0.170 N 
ATOM      7  N   UNL     1       1.474  -0.884  -0.378  0.00  0.00    -0.147 NA
ATOM      8  C   UNL     1       0.864  -3.394   0.024  0.00  0.00    +0.282 A 
ATOM      9  C   UNL     1       0.812  -4.575  -0.603  0.00  0.00    +0.050 A 
ATOM     10  S   UNL     1       1.365  -4.138  -2.245  0.00  0.00    -0.050 S 
ATOM     11  O   UNL     1       0.508  -3.310   1.334  0.00  0.00    -0.265 OA
ENDBRANCH   1   9
BRANCH   1  12
ATOM     12  N   UNL     1       1.474  -6.893  -0.296  0.00  0.00    +0.389 N 
ATOM     13  C   UNL     1       2.749  -6.328   0.162  0.00  0.00    -0.077 C 
ATOM     14  C   UNL     1       3.886  -7.304  -0.150  0.00  0.00    -0.019 C 
ATOM     15  C   UNL     1       3.625  -8.630   0.570  0.00  0.00    -0.003 C 
ATOM     16  C   UNL     1       2.259  -9.173   0.140  0.00  0.00    -0.016 C 
ATOM     17  C   UNL     1       1.183  -8.128   0.442  0.00  0.00    -0.070 C 
ATOM     18  C   UNL     1      -0.184  -8.666   0.015  0.00  0.00    -0.013 C 
ATOM     19  H   UNL     1       1.535  -7.098  -1.282  0.00  0.00    -0.080 HD
ENDBRANCH   1  12
BRANCH   1  20
ATOM     20  C   UNL     1      -0.853  -6.379  -0.768  0.00  0.00    -0.056 A 
ATOM     21  C   UNL     1      -0.790  -6.814  -2.078  0.00  0.00    +0.002 A 
ATOM     22  C   UNL     1      -1.938  -7.235  -2.724  0.00  0.00    +0.000 A 
ATOM     23  C   UNL     1      -3.149  -7.221  -2.058  0.00  0.00    +0.000 A 
ATOM     24  C   UNL     1      -3.213  -6.787  -0.747  0.00  0.00    +0.000 A 
ATOM     25  C   UNL     1      -2.064  -6.370  -0.101  0.00  0.00    +0.002 A 
ENDBRANCH   1  20
TORSDOF 3
