REMARK  Name = ZINC09345052
REMARK  4 active torsions:
REMARK  status: ('A' for Active; 'I' for Inactive)
REMARK    1  A    between atoms: C_1  and  C_2
REMARK    2  A    between atoms: C_9  and  C_13
REMARK    3  A    between atoms: N_14  and  N_15
REMARK    4  A    between atoms: C_18  and  C_25
REMARK                            x       y       z     vdW  Elec       q    Type
REMARK                         _______ _______ _______ _____ _____    ______ ____
ROOT
ATOM      1  N   UNL     1       1.868   2.969  -2.217  0.00  0.00    -0.220 N 
ATOM      2  C   UNL     1       3.114   3.539  -2.026  0.00  0.00    +0.150 A 
ATOM      3  C   UNL     1       3.655   3.663  -0.718  0.00  0.00    +0.057 A 
ATOM      4  C   UNL     1       3.087   3.265   0.566  0.00  0.00    +0.002 A 
ATOM      5  C   UNL     1       3.801   3.496   1.693  0.00  0.00    +0.056 A 
ATOM      6  S   UNL     1       5.296   4.257   1.091  0.00  0.00    -0.076 S 
ATOM      7  C   UNL     1       4.931   4.259  -0.644  0.00  0.00    +0.114 A 
ATOM      8  N   UNL     1       5.562   4.668  -1.728  0.00  0.00    -0.228 NA
ATOM      9  C   UNL     1       5.008   4.526  -2.917  0.00  0.00    +0.224 A 
ATOM     10  N   UNL     1       3.816   3.976  -3.060  0.00  0.00    -0.219 NA
ATOM     11  H   UNL     1       1.475   2.249  -1.484  0.00  0.00    +0.176 HD
ENDROOT
BRANCH   4  12
ATOM     12  C   UNL     1       1.752   2.626   0.635  0.00  0.00    -0.017 A 
ATOM     13  C   UNL     1       0.636   3.277   0.110  0.00  0.00    +0.008 A 
ATOM     14  C   UNL     1      -0.605   2.678   0.178  0.00  0.00    +0.001 A 
ATOM     15  C   UNL     1      -0.743   1.433   0.765  0.00  0.00    +0.000 A 
ATOM     16  C   UNL     1       0.360   0.782   1.288  0.00  0.00    +0.001 A 
ATOM     17  C   UNL     1       1.606   1.372   1.226  0.00  0.00    +0.008 A 
ENDBRANCH   4  12
BRANCH   1  19
ATOM     18  C   UNL     1      -0.061   2.771  -3.524  0.00  0.00    +0.143 C 
ATOM     19  N   UNL     1       1.108   3.307  -3.345  0.00  0.00    -0.189 NA
BRANCH  18  28
ATOM     20  C   UNL     1      -6.142   2.202  -7.721  0.00  0.00    +0.044 C 
ATOM     21  C   UNL     1      -4.778   2.777  -7.439  0.00  0.00    -0.050 A 
ATOM     22  C   UNL     1      -4.221   3.694  -8.328  0.00  0.00    +0.005 A 
ATOM     23  C   UNL     1      -2.992   4.233  -8.103  0.00  0.00    +0.026 A 
ATOM     24  C   UNL     1      -2.266   3.864  -6.958  0.00  0.00    +0.049 A 
ATOM     25  C   UNL     1      -2.834   2.931  -6.055  0.00  0.00    -0.001 A 
ATOM     26  C   UNL     1      -4.105   2.395  -6.319  0.00  0.00    +0.013 A 
ATOM     27  C   UNL     1      -2.109   2.554  -4.910  0.00  0.00    +0.024 A 
ATOM     28  C   UNL     1      -0.860   3.127  -4.709  0.00  0.00    +0.059 A 
ATOM     29  C   UNL     1      -0.360   4.051  -5.656  0.00  0.00    +0.258 A 
ATOM     30  N   UNL     1      -1.055   4.383  -6.719  0.00  0.00    -0.322 N 
ATOM     31  O   UNL     1       0.861   4.605  -5.461  0.00  0.00    -0.267 OA
ATOM     32  H   UNL     1      -0.618   5.106  -7.423  0.00  0.00    +0.169 HD
ENDBRANCH  18  28
ENDBRANCH   1  19
TORSDOF 3
