REMARK  Name = ZINC36301654
REMARK  7 active torsions:
REMARK  status: ('A' for Active; 'I' for Inactive)
REMARK    1  A    between atoms: C_1  and  C_2
REMARK    2  A    between atoms: C_7  and  C_30
REMARK    3  A    between atoms: N_9  and  C_10
REMARK    4  A    between atoms: C_10  and  C_11
REMARK    5  A    between atoms: C_14  and  C_17
REMARK    6  A    between atoms: N_25  and  C_26
REMARK    7  A    between atoms: C_26  and  C_27
REMARK                            x       y       z     vdW  Elec       q    Type
REMARK                         _______ _______ _______ _____ _____    ______ ____
ROOT
ATOM      1  C   UNL     1       2.710  -0.316   3.542  0.00  0.00    -0.064 A 
ATOM      2  C   UNL     1       2.313   0.231   4.749  0.00  0.00    +0.002 A 
ATOM      3  C   UNL     1       2.855  -0.231   5.931  0.00  0.00    +0.012 A 
ATOM      4  C   UNL     1       3.805  -1.252   5.907  0.00  0.00    +0.018 A 
ATOM      5  C   UNL     1       4.201  -1.800   4.686  0.00  0.00    +0.012 A 
ATOM      6  C   UNL     1       3.648  -1.333   3.512  0.00  0.00    +0.002 A 
ENDROOT
BRANCH   4   7
ATOM      7  C   UNL     1       4.390  -1.752   7.170  0.00  0.00    +0.142 A 
ATOM      8  N   UNL     1       4.898  -2.948   7.344  0.00  0.00    -0.228 NA
ATOM      9  C   UNL     1       5.344  -3.072   8.618  0.00  0.00    +0.090 A 
ATOM     10  C   UNL     1       5.960  -4.111   9.323  0.00  0.00    +0.030 A 
ATOM     11  C   UNL     1       6.303  -3.934  10.633  0.00  0.00    +0.002 A 
ATOM     12  C   UNL     1       6.047  -2.731  11.276  0.00  0.00    +0.002 A 
ATOM     13  C   UNL     1       5.442  -1.692  10.601  0.00  0.00    +0.028 A 
ATOM     14  C   UNL     1       5.085  -1.853   9.269  0.00  0.00    +0.070 A 
ATOM     15  N   UNL     1       4.487  -1.034   8.331  0.00  0.00    -0.313 N 
BRANCH  15  16
ATOM     16  C   UNL     1       4.038   0.344   8.541  0.00  0.00    +0.248 C 
BRANCH  16  17
ATOM     17  C   UNL     1       2.639   0.337   9.101  0.00  0.00    +0.375 C 
ATOM     18  O   UNL     1       2.070  -0.722   9.306  0.00  0.00    -0.244 OA
ATOM     19  O   UNL     1       2.076   1.390   9.349  0.00  0.00    -0.244 OA
ENDBRANCH  16  17
ENDBRANCH  15  16
ENDBRANCH   4   7
BRANCH   1  20
ATOM     20  C   UNL     1       2.114   0.194   2.255  0.00  0.00    -0.042 C 
BRANCH  20  27
ATOM     21  C   UNL     1       1.936  -2.131   0.570  0.00  0.00    -0.013 C 
ATOM     22  C   UNL     1       1.072  -1.919   1.815  0.00  0.00    -0.071 C 
ATOM     23  C   UNL     1      -0.266  -2.641   1.635  0.00  0.00    -0.016 C 
ATOM     24  C   UNL     1      -0.986  -2.072   0.409  0.00  0.00    -0.003 C 
ATOM     25  C   UNL     1      -1.161  -0.561   0.588  0.00  0.00    -0.016 C 
ATOM     26  C   UNL     1       0.209   0.083   0.806  0.00  0.00    -0.071 C 
ATOM     27  N   UNL     1       0.834  -0.483   2.006  0.00  0.00    +0.386 N 
ATOM     28  C   UNL     1       0.040   1.593   0.985  0.00  0.00    -0.013 C 
ATOM     29  H   UNL     1       0.224  -0.347   2.798  0.00  0.00    -0.081 HD
ENDBRANCH  20  27
ENDBRANCH   1  20
TORSDOF 5
