REMARK  Name = ZINC39988950
REMARK  4 active torsions:
REMARK  status: ('A' for Active; 'I' for Inactive)
REMARK    1  A    between atoms: C_4  and  C_7
REMARK    2  A    between atoms: C_17  and  C_19
REMARK    3  A    between atoms: C_22  and  C_25
REMARK    4  A    between atoms: C_30  and  C_32
REMARK                            x       y       z     vdW  Elec       q    Type
REMARK                         _______ _______ _______ _____ _____    ______ ____
ROOT
ATOM      1  C   UNL     1       2.422  -0.743  -0.472  0.00  0.00    -0.014 C 
ATOM      2  C   UNL     1       3.535  -0.013  -0.899  0.00  0.00    +0.002 A 
ATOM      3  C   UNL     1       3.466   1.389  -1.040  0.00  0.00    +0.030 A 
ATOM      4  C   UNL     1       4.564   2.077  -1.457  0.00  0.00    +0.042 A 
ATOM      5  C   UNL     1       5.760   1.422  -1.749  0.00  0.00    +0.022 A 
ATOM      6  C   UNL     1       5.887   0.071  -1.633  0.00  0.00    +0.025 A 
ATOM      7  C   UNL     1       4.793  -0.702  -1.207  0.00  0.00    +0.041 A 
ATOM      8  N   UNL     1       4.919  -2.029  -1.093  0.00  0.00    -0.284 N 
ATOM      9  C   UNL     1       3.942  -2.823  -0.701  0.00  0.00    +0.230 C 
ATOM     10  O   UNL     1       4.130  -4.023  -0.621  0.00  0.00    -0.274 OA
ATOM     11  C   UNL     1       2.592  -2.245  -0.345  0.00  0.00    +0.152 C 
ATOM     12 CL   UNL     1       4.474   3.802  -1.628  0.00  0.00    -0.084 Cl
ATOM     13  H   UNL     1       5.776  -2.428  -1.310  0.00  0.00    +0.155 HD
ENDROOT
BRANCH  11  14
ATOM     14  C   UNL     1       2.281  -2.626   1.080  0.00  0.00    +0.056 C 
ATOM     15  N   UNL     1       2.021  -1.807   2.015  0.00  0.00    -0.184 NA
ATOM     16  N   UNL     1       1.766  -2.402   3.249  0.00  0.00    -0.178 N 
ATOM     17  C   UNL     1       1.876  -3.862   3.101  0.00  0.00    +0.173 C 
ATOM     18  C   UNL     1       2.225  -4.041   1.609  0.00  0.00    +0.086 C 
ATOM     19  C   UNL     1       1.467  -1.748   4.389  0.00  0.00    +0.269 C 
ATOM     20  O   UNL     1       1.293  -2.370   5.419  0.00  0.00    -0.268 OA
BRANCH  19  21
ATOM     21  C   UNL     1       1.351  -0.276   4.387  0.00  0.00    +0.074 A 
ATOM     22  C   UNL     1       1.709   0.455   3.253  0.00  0.00    +0.016 A 
ATOM     23  C   UNL     1       1.598   1.829   3.258  0.00  0.00    +0.001 A 
ATOM     24  C   UNL     1       1.133   2.487   4.384  0.00  0.00    +0.003 A 
ATOM     25  C   UNL     1       0.775   1.772   5.512  0.00  0.00    +0.039 A 
ATOM     26  C   UNL     1       0.875   0.393   5.520  0.00  0.00    +0.136 A 
ATOM     27  F   UNL     1       0.521  -0.306   6.621  0.00  0.00    -0.205 F 
ENDBRANCH  19  21
BRANCH  17  28
ATOM     28  C   UNL     1       2.972  -4.405   3.981  0.00  0.00    +0.128 A 
ATOM     29  C   UNL     1       2.933  -5.564   4.661  0.00  0.00    +0.046 A 
ATOM     30  C   UNL     1       4.163  -5.677   5.350  0.00  0.00    +0.041 A 
ATOM     31  C   UNL     1       4.880  -4.579   5.049  0.00  0.00    +0.195 A 
ATOM     32  O   UNL     1       4.156  -3.815   4.215  0.00  0.00    -0.466 OA
ENDBRANCH  17  28
ENDBRANCH  11  14
BRANCH   1  36
ATOM     33  C   UNL     1      -1.213   1.134   0.429  0.00  0.00    +0.000 A 
ATOM     34  C   UNL     1      -0.021   1.713   0.834  0.00  0.00    +0.001 A 
ATOM     35  C   UNL     1       1.179   1.104   0.543  0.00  0.00    +0.008 A 
ATOM     36  C   UNL     1       1.192  -0.108  -0.167  0.00  0.00    -0.020 A 
ATOM     37  C   UNL     1      -0.022  -0.686  -0.573  0.00  0.00    +0.008 A 
ATOM     38  C   UNL     1      -1.212  -0.061  -0.272  0.00  0.00    +0.001 A 
ENDBRANCH   1  36
TORSDOF 4
