REMARK  Name = ZINC66234351
REMARK  6 active torsions:
REMARK  status: ('A' for Active; 'I' for Inactive)
REMARK    1  A    between atoms: C_3  and  C_8
REMARK    2  A    between atoms: C_5  and  O_7
REMARK    3  A    between atoms: C_8  and  C_9
REMARK    4  A    between atoms: C_9  and  N_10
REMARK    5  A    between atoms: N_13  and  N_14
REMARK    6  A    between atoms: C_15  and  C_17
REMARK                            x       y       z     vdW  Elec       q    Type
REMARK                         _______ _______ _______ _____ _____    ______ ____
ROOT
ATOM      1  N   UNL     1       5.378   3.199   1.411  0.00  0.00    -0.298 N 
ATOM      2  C   UNL     1       5.967   3.539   2.574  0.00  0.00    +0.316 C 
ATOM      3  O   UNL     1       5.456   3.221   3.630  0.00  0.00    -0.251 OA
ATOM      4  N   UNL     1       7.123   4.233   2.567  0.00  0.00    -0.218 N 
ATOM      5  H   UNL     1       5.786   3.453   0.568  0.00  0.00    +0.150 HD
ATOM      6  H   UNL     1       7.546   4.478   3.404  0.00  0.00    +0.174 HD
ENDROOT
BRANCH   4   7
ATOM      7  N   UNL     1       7.712   4.600   1.350  0.00  0.00    -0.229 N 
ATOM      8  C   UNL     1       8.867   5.294   1.342  0.00  0.00    +0.267 C 
ATOM      9  O   UNL     1       9.399   5.601   2.393  0.00  0.00    -0.268 OA
ATOM     10  H   UNL     1       7.288   4.355   0.512  0.00  0.00    +0.173 HD
BRANCH   8  11
ATOM     11  C   UNL     1       9.483   5.678   0.069  0.00  0.00    +0.076 A 
ATOM     12  C   UNL     1      10.650   6.374  -0.160  0.00  0.00    +0.024 A 
ATOM     13  C   UNL     1      10.989   6.626  -1.493  0.00  0.00    -0.036 A 
ATOM     14  C   UNL     1      10.123   6.200  -2.432  0.00  0.00    -0.006 A 
ATOM     15  S   UNL     1       8.927   5.361  -1.592  0.00  0.00    -0.088 S 
ATOM     16  C   UNL     1      10.052   6.415  -3.924  0.00  0.00    +0.043 C 
ATOM     17  C   UNL     1      11.185   7.304  -4.437  0.00  0.00    +0.005 C 
ATOM     18  C   UNL     1      12.474   6.512  -4.582  0.00  0.00    +0.000 C 
ATOM     19  C   UNL     1      12.669   5.496  -3.475  0.00  0.00    +0.000 C 
ATOM     20  C   UNL     1      13.301   6.242  -2.295  0.00  0.00    +0.005 C 
ATOM     21  C   UNL     1      12.319   7.301  -1.795  0.00  0.00    +0.036 C 
ENDBRANCH   8  11
ENDBRANCH   4   7
BRANCH   1  22
ATOM     22  C   UNL     1       4.122   2.445   1.419  0.00  0.00    +0.110 C 
BRANCH  22  23
ATOM     23  C   UNL     1       3.671   2.190  -0.021  0.00  0.00    +0.054 C 
BRANCH  23  26
ATOM     24  C   UNL     1      -0.017   1.377   0.010  0.00  0.00    +0.004 A 
ATOM     25  C   UNL     1       1.171   2.086   0.002  0.00  0.00    +0.004 A 
ATOM     26  C   UNL     1       2.379   1.415  -0.013  0.00  0.00    -0.042 A 
ATOM     27  C   UNL     1       2.403   0.033  -0.021  0.00  0.00    +0.049 A 
ATOM     28  C   UNL     1       1.214  -0.680  -0.013  0.00  0.00    +0.117 A 
ATOM     29  C   UNL     1       0.002  -0.004   0.002  0.00  0.00    +0.045 A 
BRANCH  28  30
ATOM     30  O   UNL     1       1.235  -2.039  -0.021  0.00  0.00    -0.507 OA
ATOM     31  H   UNL     1       1.249  -2.437   0.860  0.00  0.00    +0.292 HD
ENDBRANCH  28  30
ENDBRANCH  23  26
ENDBRANCH  22  23
ENDBRANCH   1  22
TORSDOF 6
