REMARK  Name = ZINC40404265
REMARK  16 active torsions:
REMARK  status: ('A' for Active; 'I' for Inactive)
REMARK    1  A    between atoms: C_1  and  C_2
REMARK    2  A    between atoms: C_2  and  O_3
REMARK    3  A    between atoms: O_3  and  C_4
REMARK    4  A    between atoms: C_4  and  C_5
REMARK    5  A    between atoms: C_5  and  C_7
REMARK    6  A    between atoms: C_5  and  O_37
REMARK    7  A    between atoms: C_7  and  N_8
REMARK    8  A    between atoms: N_8  and  C_9
REMARK    9  A    between atoms: N_8  and  C_14
REMARK   10  A    between atoms: C_9  and  C_10
REMARK   11  A    between atoms: C_10  and  C_11
REMARK   12  A    between atoms: C_11  and  C_12
REMARK   13  A    between atoms: C_11  and  C_13
REMARK   14  A    between atoms: C_14  and  C_15
REMARK   15  A    between atoms: N_27  and  C_30
REMARK   16  A    between atoms: C_30  and  C_31
REMARK                            x       y       z     vdW  Elec       q    Type
REMARK                         _______ _______ _______ _____ _____    ______ ____
ROOT
ATOM      1  C   UNL     1       1.872  -5.000  -6.356  0.00  0.00    +0.094 A 
ATOM      2  N   UNL     1       1.523  -5.947  -7.264  0.00  0.00    -0.312 N 
ATOM      3  H   UNL     1       1.317  -6.845  -6.958  0.00  0.00    +0.170 HD
ATOM      4  C   UNL     1       1.458  -5.668  -8.579  0.00  0.00    +0.260 A 
ATOM      5  O   UNL     1       1.142  -6.530  -9.380  0.00  0.00    -0.267 OA
ATOM      6  C   UNL     1       1.764  -4.339  -9.021  0.00  0.00    +0.075 A 
ATOM      7  C   UNL     1       1.760  -3.809 -10.381  0.00  0.00    -0.020 A 
ATOM      8  C   UNL     1       2.090  -2.507 -10.535  0.00  0.00    +0.010 A 
ATOM      9  S   UNL     1       2.418  -1.921  -8.897  0.00  0.00    -0.072 S 
ATOM     10  C   UNL     1       2.113  -3.428  -8.009  0.00  0.00    +0.116 A 
ATOM     11  N   UNL     1       2.151  -3.779  -6.727  0.00  0.00    -0.229 NA
ATOM     12  C   UNL     1       2.158  -1.750 -11.825  0.00  0.00    +0.127 C 
ATOM     13  N   UNL     1       2.157  -2.724 -12.933  0.00  0.00    -0.293 NA
ATOM     14  C   UNL     1       1.076  -3.704 -12.759  0.00  0.00    +0.090 C 
ATOM     15  C   UNL     1       1.405  -4.652 -11.603  0.00  0.00    +0.052 C 
ENDROOT
BRANCH   1  16
ATOM     16  C   UNL     1       1.932  -5.361  -4.894  0.00  0.00    -0.003 C 
BRANCH  16  17
ATOM     17  N   UNL     1       2.414  -4.207  -4.124  0.00  0.00    +0.386 N 
ATOM     18  H   UNL     1       1.849  -3.399  -4.338  0.00  0.00    -0.081 HD
BRANCH  17  19
ATOM     19  C   UNL     1       2.321  -4.503  -2.688  0.00  0.00    -0.044 C 
BRANCH  19  20
ATOM     20  C   UNL     1       2.689  -3.254  -1.885  0.00  0.00    +0.124 C 
BRANCH  20  21
ATOM     21  O   UNL     1       4.079  -2.970  -2.057  0.00  0.00    -0.391 OA
ATOM     22  H   UNL     1       4.665  -3.680  -1.764  0.00  0.00    +0.210 HD
ENDBRANCH  20  21
BRANCH  20  23
ATOM     23  C   UNL     1       2.398  -3.497  -0.402  0.00  0.00    +0.189 C 
BRANCH  23  24
ATOM     24  O   UNL     1       2.631  -2.294   0.332  0.00  0.00    -0.378 OA
BRANCH  24  26
ATOM     25  C   UNL     1       2.668  -1.072   2.417  0.00  0.00    +0.034 C 
ATOM     26  C   UNL     1       2.387  -2.413   1.735  0.00  0.00    +0.156 C 
ENDBRANCH  24  26
ENDBRANCH  23  24
ENDBRANCH  20  23
ENDBRANCH  19  20
ENDBRANCH  17  19
BRANCH  17  27
ATOM     27  C   UNL     1       3.813  -3.933  -4.477  0.00  0.00    -0.078 C 
BRANCH  27  28
ATOM     28  C   UNL     1       4.696  -5.088  -4.000  0.00  0.00    -0.016 C 
BRANCH  28  29
ATOM     29  C   UNL     1       6.149  -4.815  -4.391  0.00  0.00    -0.019 C 
ATOM     30  C   UNL     1       6.657  -3.581  -3.642  0.00  0.00    +0.007 C 
ATOM     31  C   UNL     1       7.012  -6.024  -4.026  0.00  0.00    +0.007 C 
ENDBRANCH  28  29
ENDBRANCH  27  28
ENDBRANCH  17  27
ENDBRANCH  16  17
ENDBRANCH   1  16
BRANCH  13  32
ATOM     32  C   UNL     1       2.049  -2.046 -14.231  0.00  0.00    +0.120 C 
BRANCH  32  33
ATOM     33  C   UNL     1       3.291  -1.227 -14.475  0.00  0.00    -0.033 A 
ATOM     34  C   UNL     1       3.348   0.086 -14.047  0.00  0.00    +0.005 A 
ATOM     35  C   UNL     1       4.487   0.837 -14.271  0.00  0.00    +0.000 A 
ATOM     36  C   UNL     1       5.569   0.274 -14.921  0.00  0.00    +0.000 A 
ATOM     37  C   UNL     1       5.513  -1.040 -15.348  0.00  0.00    +0.000 A 
ATOM     38  C   UNL     1       4.375  -1.792 -15.120  0.00  0.00    +0.005 A 
ENDBRANCH  32  33
ENDBRANCH  13  32
TORSDOF 13
