REMARK  Name = ZINC20990384
REMARK  8 active torsions:
REMARK  status: ('A' for Active; 'I' for Inactive)
REMARK    1  A    between atoms: C_1  and  C_2
REMARK    2  A    between atoms: C_16  and  C_17
REMARK    3  A    between atoms: C_17  and  O_19
REMARK    4  A    between atoms: O_19  and  C_20
REMARK    5  A    between atoms: C_20  and  C_22
REMARK    6  A    between atoms: C_20  and  C_23
REMARK    7  A    between atoms: N_25  and  C_26
REMARK    8  A    between atoms: C_32  and  C_34
REMARK                            x       y       z     vdW  Elec       q    Type
REMARK                         _______ _______ _______ _____ _____    ______ ____
ROOT
ATOM      1  C   UNL     1       9.129  -0.317   4.239  0.00  0.00    +0.046 C 
ATOM      2  C   UNL     1       9.543  -0.477   2.799  0.00  0.00    -0.015 A 
ATOM      3  C   UNL     1      10.893  -0.419   2.447  0.00  0.00    +0.076 A 
ATOM      4  C   UNL     1      11.178  -0.578   1.072  0.00  0.00    +0.116 A 
ATOM      5  N   UNL     1      12.420  -0.542   0.606  0.00  0.00    -0.226 NA
ATOM      6  C   UNL     1      13.444  -0.372   1.394  0.00  0.00    +0.114 A 
ATOM      7  N   UNL     1      13.293  -0.210   2.740  0.00  0.00    -0.296 N 
ATOM      8  C   UNL     1      12.077  -0.215   3.313  0.00  0.00    +0.263 A 
ATOM      9  O   UNL     1      11.953  -0.056   4.514  0.00  0.00    -0.267 OA
ATOM     10  C   UNL     1      14.501  -0.028   3.557  0.00  0.00    +0.126 C 
ATOM     11  C   UNL     1      15.229  -1.364   3.681  0.00  0.00    +0.022 C 
ATOM     12  C   UNL     1      16.227  -1.552   2.551  0.00  0.00    +0.002 C 
ATOM     13  C   UNL     1      15.548  -1.659   1.197  0.00  0.00    +0.008 C 
ATOM     14  C   UNL     1      14.846  -0.354   0.829  0.00  0.00    +0.074 C 
ATOM     15  S   UNL     1       9.575  -0.808   0.346  0.00  0.00    -0.062 S 
ATOM     16  C   UNL     1       8.598  -0.679   1.834  0.00  0.00    +0.102 A 
ENDROOT
BRANCH  16  17
ATOM     17  C   UNL     1       7.144  -0.774   1.984  0.00  0.00    +0.347 C 
ATOM     18  O   UNL     1       6.638  -0.668   3.085  0.00  0.00    -0.244 OA
BRANCH  17  19
ATOM     19  O   UNL     1       6.366  -0.979   0.901  0.00  0.00    -0.448 OA
BRANCH  19  20
ATOM     20  C   UNL     1       4.934  -1.063   1.125  0.00  0.00    +0.259 C 
ATOM     21  C   UNL     1       4.544  -2.518   1.393  0.00  0.00    +0.062 C 
BRANCH  20  22
ATOM     22  C   UNL     1       4.205  -0.564  -0.096  0.00  0.00    +0.254 C 
ATOM     23  O   UNL     1       4.827  -0.261  -1.092  0.00  0.00    -0.272 OA
ATOM     24  N   UNL     1       2.862  -0.453  -0.081  0.00  0.00    -0.309 N 
ATOM     25  H   UNL     1       2.298  -0.728   0.823  0.00  0.00    +0.149 HD
BRANCH  24  26
ATOM     26  C   UNL     1       2.154   0.032  -1.268  0.00  0.00    +0.076 C 
ATOM     27  C   UNL     1       2.133   1.562  -1.259  0.00  0.00    +0.022 C 
ATOM     28  C   UNL     1       1.417   2.055  -0.000  0.00  0.00    +0.002 C 
ATOM     29  C   UNL     1      -0.019   1.526   0.010  0.00  0.00    +0.000 C 
ATOM     30  C   UNL     1       0.002  -0.004   0.002  0.00  0.00    +0.005 C 
ATOM     31  C   UNL     1       0.718  -0.497  -1.257  0.00  0.00    +0.006 C 
ATOM     32  C   UNL     1       0.739  -2.027  -1.265  0.00  0.00    +0.009 C 
ENDBRANCH  24  26
ENDBRANCH  20  22
ENDBRANCH  19  20
ENDBRANCH  17  19
ENDBRANCH  16  17
TORSDOF 5
