REMARK  Name = ZINC39515986
REMARK  7 active torsions:
REMARK  status: ('A' for Active; 'I' for Inactive)
REMARK    1  A    between atoms: C_1  and  C_2
REMARK    2  A    between atoms: C_4  and  N_25
REMARK    3  A    between atoms: C_6  and  S_8
REMARK    4  A    between atoms: S_8  and  C_9
REMARK    5  A    between atoms: C_9  and  C_10
REMARK    6  A    between atoms: C_12  and  O_13
REMARK    7  A    between atoms: C_22  and  C_24
REMARK                            x       y       z     vdW  Elec       q    Type
REMARK                         _______ _______ _______ _____ _____    ______ ____
ROOT
ATOM      1  C   UNL     1       0.156  -5.587   3.441  0.00  0.00    -0.020 A 
ATOM      2  C   UNL     1       1.254  -5.590   4.278  0.00  0.00    +0.092 A 
ATOM      3  C   UNL     1       1.185  -6.229   5.508  0.00  0.00    +0.285 A 
ATOM      4  O   UNL     1       0.070  -6.850   5.908  0.00  0.00    -0.425 OA
ATOM      5  C   UNL     1      -1.032  -6.878   5.130  0.00  0.00    +0.141 A 
ATOM      6  C   UNL     1      -1.020  -6.238   3.870  0.00  0.00    +0.022 A 
ATOM      7  C   UNL     1      -2.168  -6.260   3.058  0.00  0.00    +0.013 A 
ATOM      8  C   UNL     1      -3.291  -6.893   3.488  0.00  0.00    +0.024 A 
ATOM      9  C   UNL     1      -3.313  -7.527   4.743  0.00  0.00    +0.037 A 
ATOM     10  C   UNL     1      -2.179  -7.524   5.555  0.00  0.00    +0.070 A 
ATOM     11  N   UNL     1      -4.445  -8.158   5.162  0.00  0.00    -0.286 N 
ATOM     12  C   UNL     1      -4.590  -8.474   6.434  0.00  0.00    +0.214 C 
ATOM     13  O   UNL     1      -3.771  -8.097   7.253  0.00  0.00    -0.276 OA
ATOM     14  C   UNL     1      -5.769  -9.303   6.875  0.00  0.00    +0.109 C 
ATOM     15  H   UNL     1      -5.144  -8.374   4.526  0.00  0.00    +0.155 HD
ENDROOT
BRANCH   3  16
ATOM     16  O   UNL     1       2.263  -6.225   6.315  0.00  0.00    -0.480 OA
ATOM     17  H   UNL     1       2.130  -6.692   7.151  0.00  0.00    +0.295 HD
ENDBRANCH   3  16
BRANCH   1  18
ATOM     18  C   UNL     1       0.210  -4.898   2.102  0.00  0.00    +0.113 C 
BRANCH  18  19
ATOM     19  S   UNL     1       0.130  -3.102   2.342  0.00  0.00    -0.081 S 
BRANCH  19  25
ATOM     20  C   UNL     1       0.175   0.886  -0.865  0.00  0.00    +0.066 C 
ATOM     21  C   UNL     1       0.218  -0.609  -0.681  0.00  0.00    +0.044 A 
ATOM     22  C   UNL     1       0.314  -1.444  -1.778  0.00  0.00    +0.066 A 
ATOM     23  C   UNL     1       0.352  -2.823  -1.564  0.00  0.00    +0.121 A 
ATOM     24  N   UNL     1       0.295  -3.284  -0.319  0.00  0.00    -0.207 NA
ATOM     25  C   UNL     1       0.203  -2.450   0.707  0.00  0.00    +0.190 A 
ATOM     26  N   UNL     1       0.171  -1.136   0.533  0.00  0.00    -0.227 NA
BRANCH  23  27
ATOM     27  N   UNL     1       0.447  -3.698  -2.634  0.00  0.00    -0.343 N 
ATOM     28  H   UNL     1       0.488  -3.354  -3.539  0.00  0.00    +0.144 HD
ATOM     29  H   UNL     1       0.473  -4.655  -2.477  0.00  0.00    +0.144 HD
ENDBRANCH  23  27
ENDBRANCH  19  25
ENDBRANCH  18  19
ENDBRANCH   1  18
TORSDOF 5
