REMARK  Name = ZINC05047952
REMARK  2 active torsions:
REMARK  status: ('A' for Active; 'I' for Inactive)
REMARK    1  A    between atoms: N_10  and  S_11
REMARK    2  A    between atoms: S_11  and  C_14
REMARK                            x       y       z     vdW  Elec       q    Type
REMARK                         _______ _______ _______ _____ _____    ______ ____
ROOT
ATOM      1  S   UNL     1      -1.046   0.577  -2.451  0.00  0.00    +0.075 S 
ATOM      2  O   UNL     1      -1.298   1.313  -3.640  0.00  0.00    -0.150 OA
ATOM      3  O   UNL     1       0.019  -0.358  -2.345  0.00  0.00    -0.150 OA
ENDROOT
BRANCH   1   4
ATOM      4  C   UNL     1      -2.527  -0.303  -2.080  0.00  0.00    +0.116 A 
ATOM      5  C   UNL     1      -3.612  -0.191  -2.895  0.00  0.00    +0.030 A 
ATOM      6  C   UNL     1      -4.791  -0.879  -2.619  0.00  0.00    +0.018 A 
ATOM      7  C   UNL     1      -4.894  -1.683  -1.524  0.00  0.00    +0.026 A 
ATOM      8  C   UNL     1      -3.794  -1.824  -0.659  0.00  0.00    -0.002 A 
ATOM      9  C   UNL     1      -2.593  -1.127  -0.944  0.00  0.00    +0.010 A 
ATOM     10  C   UNL     1      -1.496  -1.264  -0.077  0.00  0.00    +0.010 A 
ATOM     11  C   UNL     1      -1.598  -2.067   1.017  0.00  0.00    +0.001 A 
ATOM     12  C   UNL     1      -2.777  -2.755   1.294  0.00  0.00    +0.001 A 
ATOM     13  C   UNL     1      -3.862  -2.644   0.479  0.00  0.00    +0.009 A 
ATOM     14 BR   UNL     1      -6.505  -2.607  -1.171  0.00  0.00    -0.050 Br
ENDBRANCH   1   4
BRANCH   1  24
ATOM     15  C   UNL     1      -3.469   4.880  -0.846  0.00  0.00    +0.000 A 
ATOM     16  C   UNL     1      -3.477   4.110  -1.996  0.00  0.00    +0.002 A 
ATOM     17  C   UNL     1      -2.597   3.054  -2.123  0.00  0.00    +0.025 A 
ATOM     18  C   UNL     1      -1.704   2.765  -1.097  0.00  0.00    +0.054 A 
ATOM     19  C   UNL     1      -1.695   3.538   0.053  0.00  0.00    -0.025 A 
ATOM     20  C   UNL     1      -2.583   4.595   0.174  0.00  0.00    +0.005 A 
ATOM     21  C   UNL     1      -0.738   3.259   1.182  0.00  0.00    +0.038 C 
ATOM     22  C   UNL     1      -0.222   1.822   1.104  0.00  0.00    +0.025 C 
ATOM     23  C   UNL     1       0.306   1.562  -0.312  0.00  0.00    +0.132 C 
ATOM     24  N   UNL     1      -0.822   1.689  -1.245  0.00  0.00    -0.203 N 
ENDBRANCH   1  24
TORSDOF 2
