REMARK  Name = ZINC05036841
REMARK  7 active torsions:
REMARK  status: ('A' for Active; 'I' for Inactive)
REMARK    1  A    between atoms: C_1  and  C_2
REMARK    2  A    between atoms: C_2  and  C_4
REMARK    3  A    between atoms: C_2  and  N_15
REMARK    4  A    between atoms: N_6  and  C_7
REMARK    5  A    between atoms: C_7  and  C_8
REMARK    6  A    between atoms: C_8  and  C_9
REMARK    7  A    between atoms: C_22  and  C_24
REMARK                            x       y       z     vdW  Elec       q    Type
REMARK                         _______ _______ _______ _____ _____    ______ ____
ROOT
ATOM      1  N   UNL     1      -0.698   1.558   1.213  0.00  0.00    -0.251 N 
ATOM      2  C   UNL     1      -1.239   0.755   2.185  0.00  0.00    +0.070 A 
ATOM      3  C   UNL     1      -1.323  -0.625   2.357  0.00  0.00    +0.029 A 
ATOM      4  C   UNL     1      -1.941  -1.136   3.462  0.00  0.00    +0.022 A 
ATOM      5  C   UNL     1      -2.492  -0.296   4.422  0.00  0.00    +0.042 A 
ATOM      6  C   UNL     1      -2.424   1.062   4.279  0.00  0.00    +0.032 A 
ATOM      7  C   UNL     1      -1.796   1.607   3.156  0.00  0.00    +0.029 A 
ATOM      8  C   UNL     1      -1.548   2.977   2.694  0.00  0.00    +0.100 A 
ATOM      9  N   UNL     1      -0.900   2.899   1.557  0.00  0.00    -0.169 NA
ATOM     10 CL   UNL     1      -3.273  -0.976   5.816  0.00  0.00    -0.084 Cl
ENDROOT
BRANCH   8  11
ATOM     11  C   UNL     1      -1.953   4.223   3.388  0.00  0.00    +0.003 A 
ATOM     12  C   UNL     1      -3.153   4.271   4.096  0.00  0.00    +0.010 A 
ATOM     13  C   UNL     1      -3.522   5.432   4.744  0.00  0.00    +0.001 A 
ATOM     14  C   UNL     1      -2.709   6.550   4.683  0.00  0.00    +0.000 A 
ATOM     15  C   UNL     1      -1.519   6.509   3.978  0.00  0.00    +0.001 A 
ATOM     16  C   UNL     1      -1.137   5.352   3.330  0.00  0.00    +0.010 A 
ENDBRANCH   8  11
BRANCH   1  18
ATOM     17  C   UNL     1      -0.753   1.593  -1.232  0.00  0.00    +0.042 C 
ATOM     18  C   UNL     1      -0.013   1.086   0.008  0.00  0.00    +0.190 C 
BRANCH  18  19
ATOM     19  C   UNL     1       1.401   1.607  -0.003  0.00  0.00    +0.237 C 
ATOM     20  O   UNL     1       1.797   2.305   0.907  0.00  0.00    -0.273 OA
ATOM     21  N   UNL     1       2.226   1.299  -1.023  0.00  0.00    -0.313 N 
ATOM     22  H   UNL     1       1.909   0.741  -1.751  0.00  0.00    +0.149 HD
BRANCH  21  23
ATOM     23  C   UNL     1       3.600   1.806  -1.034  0.00  0.00    +0.108 C 
BRANCH  23  24
ATOM     24  C   UNL     1       4.316   1.312  -2.292  0.00  0.00    +0.049 C 
BRANCH  24  25
ATOM     25  C   UNL     1       5.730   1.834  -2.303  0.00  0.00    -0.072 C 
ATOM     26  C   UNL     1       6.663   1.069  -1.833  0.00  0.00    -0.028 C 
ATOM     27  C   UNL     1       8.112   1.453  -1.768  0.00  0.00    +0.027 C 
ATOM     28  C   UNL     1       8.384   2.641  -2.693  0.00  0.00    +0.004 C 
ATOM     29  C   UNL     1       7.337   3.726  -2.410  0.00  0.00    +0.005 C 
ATOM     30  C   UNL     1       5.970   3.205  -2.864  0.00  0.00    +0.030 C 
ENDBRANCH  24  25
ENDBRANCH  23  24
ENDBRANCH  21  23
ENDBRANCH  18  19
ENDBRANCH   1  18
TORSDOF 6
