REMARK  Name = ZINC08964193
REMARK  9 active torsions:
REMARK  status: ('A' for Active; 'I' for Inactive)
REMARK    1  A    between atoms: C_1  and  C_2
REMARK    2  A    between atoms: C_5  and  C_31
REMARK    3  A    between atoms: C_6  and  N_8
REMARK    4  A    between atoms: C_9  and  C_11
REMARK    5  A    between atoms: N_13  and  C_14
REMARK    6  A    between atoms: C_14  and  C_15
REMARK    7  A    between atoms: C_15  and  C_17
REMARK    8  A    between atoms: C_15  and  N_63
REMARK    9  A    between atoms: N_25  and  C_26
REMARK                            x       y       z     vdW  Elec       q    Type
REMARK                         _______ _______ _______ _____ _____    ______ ____
ROOT
ATOM      1  C   UNL     1      -2.796   7.422  -1.628  0.00  0.00    +0.094 C 
ENDROOT
BRANCH   1   4
ATOM      2  C   UNL     1      -3.585   9.267  -3.010  0.00  0.00    +0.299 C 
ATOM      3  O   UNL     1      -2.486   9.772  -2.913  0.00  0.00    -0.265 OA
ATOM      4  N   UNL     1      -3.843   8.091  -2.405  0.00  0.00    -0.309 N 
ATOM      5  H   UNL     1      -4.722   7.688  -2.482  0.00  0.00    +0.149 HD
BRANCH   2   7
ATOM      6  N   UNL     1      -4.395  11.125  -4.407  0.00  0.00    -0.278 N 
ATOM      7  C   UNL     1      -4.653   9.949  -3.802  0.00  0.00    +0.303 C 
ATOM      8  O   UNL     1      -5.752   9.444  -3.899  0.00  0.00    -0.265 OA
ATOM      9  H   UNL     1      -3.505  11.508  -4.364  0.00  0.00    +0.155 HD
BRANCH   6  15
ATOM     10  C   UNL     1      -8.578  10.957  -6.983  0.00  0.00    +0.044 C 
ATOM     11  C   UNL     1      -7.451  11.736  -6.356  0.00  0.00    -0.049 A 
ATOM     12  C   UNL     1      -7.420  13.115  -6.465  0.00  0.00    +0.004 A 
ATOM     13  C   UNL     1      -6.386  13.834  -5.893  0.00  0.00    +0.005 A 
ATOM     14  C   UNL     1      -5.382  13.177  -5.210  0.00  0.00    -0.029 A 
ATOM     15  C   UNL     1      -5.410  11.793  -5.098  0.00  0.00    +0.037 A 
ATOM     16  C   UNL     1      -6.447  11.073  -5.679  0.00  0.00    +0.027 A 
ATOM     17  C   UNL     1      -4.256  13.961  -4.585  0.00  0.00    +0.045 C 
ENDBRANCH   6  15
ENDBRANCH   2   7
ENDBRANCH   1   4
BRANCH   1  18
ATOM     18  C   UNL     1      -3.391   6.210  -0.909  0.00  0.00    -0.020 C 
BRANCH  18  19
ATOM     19  C   UNL     1      -2.281   5.394  -0.298  0.00  0.00    -0.059 A 
ATOM     20  C   UNL     1      -1.584   5.880   0.794  0.00  0.00    +0.004 A 
ATOM     21  C   UNL     1      -0.570   5.136   1.359  0.00  0.00    +0.023 A 
ATOM     22  C   UNL     1      -0.240   3.888   0.833  0.00  0.00    +0.033 A 
ATOM     23  C   UNL     1      -0.942   3.411  -0.268  0.00  0.00    -0.025 A 
ATOM     24  C   UNL     1      -1.957   4.158  -0.827  0.00  0.00    +0.007 A 
ATOM     25  C   UNL     1      -0.375   2.053  -0.631  0.00  0.00    +0.056 C 
ATOM     26  C   UNL     1       0.972   2.029   0.128  0.00  0.00    +0.109 C 
ATOM     27  N   UNL     1       0.735   2.967   1.246  0.00  0.00    -0.332 N 
ATOM     28  C   UNL     1       1.977   3.647   1.636  0.00  0.00    +0.129 C 
ENDBRANCH  18  19
BRANCH  18  33
ATOM     29  C   UNL     1      -5.506   7.317  -0.430  0.00  0.00    -0.078 C 
ATOM     30  C   UNL     1      -6.538   7.243   0.724  0.00  0.00    -0.020 C 
ATOM     31  C   UNL     1      -6.248   5.864   1.359  0.00  0.00    -0.020 C 
ATOM     32  C   UNL     1      -4.804   5.526   0.945  0.00  0.00    -0.078 C 
ATOM     33  N   UNL     1      -4.327   6.666   0.163  0.00  0.00    +0.385 N 
ATOM     34  H   UNL     1      -3.837   7.328   0.777  0.00  0.00    -0.081 HD
ENDBRANCH  18  33
ENDBRANCH   1  18
TORSDOF 6
