REMARK  Name = ZINC02266358
REMARK  8 active torsions:
REMARK  status: ('A' for Active; 'I' for Inactive)
REMARK    1  A    between atoms: C_1  and  C_2
REMARK    2  A    between atoms: C_2  and  O_3
REMARK    3  A    between atoms: O_3  and  C_4
REMARK    4  A    between atoms: C_4  and  C_6
REMARK    5  A    between atoms: C_7  and  N_27
REMARK    6  A    between atoms: C_11  and  C_15
REMARK    7  A    between atoms: C_23  and  C_25
REMARK    8  A    between atoms: C_23  and  C_26
REMARK                            x       y       z     vdW  Elec       q    Type
REMARK                         _______ _______ _______ _____ _____    ______ ____
ROOT
ATOM      1  C   UNL     1      -0.011   0.018   0.000  0.00  0.00    +0.119 A 
ATOM      2  C   UNL     1      -1.067  -0.869   0.007  0.00  0.00    +0.056 A 
ATOM      3  C   UNL     1      -0.772  -2.293  -0.004  0.00  0.00    +0.033 A 
ATOM      4  C   UNL     1      -1.682  -3.383   0.001  0.00  0.00    -0.026 A 
ATOM      5  C   UNL     1      -1.204  -4.654  -0.015  0.00  0.00    +0.008 A 
ATOM      6  C   UNL     1       0.181  -4.881  -0.029  0.00  0.00    +0.078 A 
ATOM      7  N   UNL     1       1.030  -3.864  -0.031  0.00  0.00    -0.239 NA
ATOM      8  C   UNL     1       0.603  -2.621  -0.021  0.00  0.00    +0.112 A 
ATOM      9  S   UNL     1       1.420  -1.044  -0.029  0.00  0.00    -0.060 S 
ATOM     10  C   UNL     1      -2.130  -5.843  -0.025  0.00  0.00    +0.198 C 
ATOM     11  O   UNL     1      -3.446  -5.448   0.363  0.00  0.00    -0.369 OA
ATOM     12  C   UNL     1      -3.943  -4.332  -0.384  0.00  0.00    +0.068 C 
ATOM     13  C   UNL     1      -3.157  -3.086   0.030  0.00  0.00    +0.070 C 
ATOM     14  C   UNL     1      -5.428  -4.128  -0.079  0.00  0.00    +0.041 C 
ATOM     15  C   UNL     1      -3.754  -4.587  -1.880  0.00  0.00    +0.041 C 
ENDROOT
BRANCH   6  16
ATOM     16  C   UNL     1       0.698  -6.271  -0.042  0.00  0.00    +0.001 A 
ATOM     17  C   UNL     1       1.752  -6.632   0.796  0.00  0.00    +0.010 A 
ATOM     18  C   UNL     1       2.226  -7.928   0.784  0.00  0.00    +0.001 A 
ATOM     19  C   UNL     1       1.665  -8.865  -0.065  0.00  0.00    +0.000 A 
ATOM     20  C   UNL     1       0.623  -8.511  -0.903  0.00  0.00    +0.001 A 
ATOM     21  C   UNL     1       0.137  -7.219  -0.896  0.00  0.00    +0.010 A 
ENDBRANCH   6  16
BRANCH   2  22
ATOM     22  N   UNL     1      -2.377  -0.414   0.024  0.00  0.00    -0.356 N 
ATOM     23  H   UNL     1      -2.590   0.465  -0.325  0.00  0.00    +0.142 HD
ATOM     24  H   UNL     1      -3.081  -0.976   0.384  0.00  0.00    +0.142 HD
ENDBRANCH   2  22
BRANCH   1  25
ATOM     25  C   UNL     1      -0.053   1.432   0.008  0.00  0.00    +0.348 C 
ATOM     26  O   UNL     1      -1.125   2.009   0.018  0.00  0.00    -0.244 OA
BRANCH  25  27
ATOM     27  O   UNL     1       1.095   2.142  -0.001  0.00  0.00    -0.461 OA
BRANCH  27  29
ATOM     28  C   UNL     1       2.373   4.193  -0.004  0.00  0.00    +0.048 C 
ATOM     29  C   UNL     1       0.978   3.566   0.009  0.00  0.00    +0.229 C 
ENDBRANCH  27  29
ENDBRANCH  25  27
ENDBRANCH   1  25
TORSDOF 5
