REMARK  Name = ZINC01812046
REMARK  10 active torsions:
REMARK  status: ('A' for Active; 'I' for Inactive)
REMARK    1  A    between atoms: C_1  and  C_2
REMARK    2  A    between atoms: C_2  and  N_3
REMARK    3  A    between atoms: N_3  and  C_4
REMARK    4  A    between atoms: C_4  and  N_6
REMARK    5  A    between atoms: N_6  and  N_7
REMARK    6  A    between atoms: C_8  and  C_10
REMARK    7  A    between atoms: C_10  and  S_11
REMARK    8  A    between atoms: S_11  and  C_12
REMARK    9  A    between atoms: C_15  and  C_24
REMARK   10  A    between atoms: N_16  and  C_17
REMARK                            x       y       z     vdW  Elec       q    Type
REMARK                         _______ _______ _______ _____ _____    ______ ____
ROOT
ATOM      1  C   UNL     1      -0.016   1.310   0.009  0.00  0.00    +0.197 A 
ATOM      2  N   UNL     1       0.002  -0.004   0.002  0.00  0.00    -0.122 NA
ATOM      3  N   UNL     1       1.214  -0.430  -0.012  0.00  0.00    -0.128 NA
ATOM      4  C   UNL     1       2.047   0.585  -0.014  0.00  0.00    +0.169 A 
ATOM      5  N   UNL     1       1.285   1.733  -0.001  0.00  0.00    -0.270 N 
ENDROOT
BRANCH   5   6
ATOM      6  C   UNL     1       1.747   3.057   0.001  0.00  0.00    +0.051 A 
ATOM      7  C   UNL     1       2.450   3.550  -1.090  0.00  0.00    +0.027 A 
ATOM      8  C   UNL     1       2.899   4.856  -1.087  0.00  0.00    +0.017 A 
ATOM      9  C   UNL     1       2.659   5.669   0.006  0.00  0.00    +0.018 A 
ATOM     10  C   UNL     1       1.963   5.178   1.097  0.00  0.00    +0.017 A 
ATOM     11  C   UNL     1       1.507   3.875   1.097  0.00  0.00    +0.027 A 
ATOM     12 BR   UNL     1       3.282   7.455   0.010  0.00  0.00    -0.050 Br
ENDBRANCH   5   6
BRANCH   4  13
ATOM     13  C   UNL     1       3.523   0.510  -0.028  0.00  0.00    +0.020 A 
ATOM     14  C   UNL     1       4.285   1.639   0.277  0.00  0.00    +0.011 A 
ATOM     15  C   UNL     1       5.663   1.561   0.267  0.00  0.00    +0.001 A 
ATOM     16  C   UNL     1       6.289   0.370  -0.055  0.00  0.00    +0.000 A 
ATOM     17  C   UNL     1       5.540  -0.751  -0.364  0.00  0.00    +0.001 A 
ATOM     18  C   UNL     1       4.162  -0.688  -0.352  0.00  0.00    +0.011 A 
ENDBRANCH   4  13
BRANCH   1  19
ATOM     19  S   UNL     1      -1.448   2.336   0.022  0.00  0.00    -0.076 S 
BRANCH  19  20
ATOM     20  C   UNL     1      -2.742   1.071   0.022  0.00  0.00    +0.174 C 
BRANCH  20  22
ATOM     21  N   UNL     1      -5.214   0.984   0.035  0.00  0.00    -0.234 N 
ATOM     22  C   UNL     1      -4.094   1.735   0.033  0.00  0.00    +0.239 C 
ATOM     23  O   UNL     1      -4.176   2.945   0.039  0.00  0.00    -0.273 OA
ATOM     24  H   UNL     1      -5.149   0.016   0.029  0.00  0.00    +0.173 HD
BRANCH  21  25
ATOM     25  N   UNL     1      -6.471   1.601   0.044  0.00  0.00    -0.246 N 
ATOM     26  H   UNL     1      -6.537   2.569   0.049  0.00  0.00    +0.172 HD
BRANCH  25  27
ATOM     27  C   UNL     1      -7.591   0.850   0.046  0.00  0.00    +0.147 C 
ATOM     28  S   UNL     1      -9.127   1.605   0.058  0.00  0.00    -0.017 S 
BRANCH  27  29
ATOM     29  N   UNL     1      -7.500  -0.494   0.039  0.00  0.00    -0.326 N 
ATOM     30  H   UNL     1      -6.629  -0.922   0.032  0.00  0.00    +0.148 HD
BRANCH  29  32
ATOM     31  C   UNL     1      -8.337  -2.792   0.032  0.00  0.00    +0.024 C 
ATOM     32  C   UNL     1      -8.717  -1.310   0.041  0.00  0.00    +0.100 C 
ENDBRANCH  29  32
ENDBRANCH  27  29
ENDBRANCH  25  27
ENDBRANCH  21  25
ENDBRANCH  20  22
ENDBRANCH  19  20
ENDBRANCH   1  19
TORSDOF 9
