REMARK  Name = ZINC09483413
REMARK  7 active torsions:
REMARK  status: ('A' for Active; 'I' for Inactive)
REMARK    1  A    between atoms: C_1  and  C_2
REMARK    2  A    between atoms: C_2  and  C_35
REMARK    3  A    between atoms: C_6  and  C_27
REMARK    4  A    between atoms: N_8  and  C_16
REMARK    5  A    between atoms: C_16  and  C_17
REMARK    6  A    between atoms: N_19  and  C_20
REMARK    7  A    between atoms: C_20  and  C_21
REMARK                            x       y       z     vdW  Elec       q    Type
REMARK                         _______ _______ _______ _____ _____    ______ ____
ROOT
ATOM      1  C   UNL     1      -7.721  10.506   4.067  0.00  0.00    +0.011 C 
ATOM      2  C   UNL     1      -8.618  10.162   2.876  0.00  0.00    -0.023 C 
ATOM      3  C   UNL     1      -9.119   8.723   3.003  0.00  0.00    +0.058 C 
ATOM      4  C   UNL     1      -7.951   7.768   2.999  0.00  0.00    +0.017 C 
ATOM      5  C   UNL     1      -6.802   8.041   2.329  0.00  0.00    +0.040 C 
ATOM      6  C   UNL     1      -5.535   7.195   2.246  0.00  0.00    +0.175 C 
ATOM      7  N   UNL     1      -5.627   5.980   3.027  0.00  0.00    -0.306 N 
ATOM      8  C   UNL     1      -6.630   5.089   2.654  0.00  0.00    +0.052 A 
ATOM      9  C   UNL     1      -6.349   3.938   1.926  0.00  0.00    +0.025 A 
ATOM     10  C   UNL     1      -7.395   3.078   1.628  0.00  0.00    +0.002 A 
ATOM     11  C   UNL     1      -8.681   3.362   2.051  0.00  0.00    +0.002 A 
ATOM     12  C   UNL     1      -8.946   4.522   2.764  0.00  0.00    +0.025 A 
ATOM     13  C   UNL     1      -7.890   5.382   3.036  0.00  0.00    +0.052 A 
ATOM     14  N   UNL     1      -8.092   6.602   3.689  0.00  0.00    -0.316 N 
ATOM     15  C   UNL     1      -6.706   9.255   1.608  0.00  0.00    +0.163 C 
ATOM     16  O   UNL     1      -5.685   9.489   0.992  0.00  0.00    -0.292 OA
ATOM     17  C   UNL     1      -7.815  10.262   1.574  0.00  0.00    +0.086 C 
ATOM     18  C   UNL     1      -9.808  11.123   2.827  0.00  0.00    +0.011 C 
ATOM     19  H   UNL     1      -8.331   6.618   4.629  0.00  0.00    +0.152 HD
ENDROOT
BRANCH   6  20
ATOM     20  C   UNL     1      -4.372   8.011   2.748  0.00  0.00    +0.130 A 
ATOM     21  C   UNL     1      -3.502   8.695   1.983  0.00  0.00    +0.047 A 
ATOM     22  C   UNL     1      -2.581   9.312   2.861  0.00  0.00    +0.041 A 
ATOM     23  C   UNL     1      -2.939   8.961   4.109  0.00  0.00    +0.195 A 
ATOM     24  O   UNL     1      -4.024   8.173   4.035  0.00  0.00    -0.466 OA
ENDBRANCH   6  20
BRANCH   7  25
ATOM     25  C   UNL     1      -4.325   5.304   3.105  0.00  0.00    +0.201 C 
BRANCH  25  26
ATOM     26  C   UNL     1      -4.350   4.290   4.219  0.00  0.00    +0.231 C 
ATOM     27  O   UNL     1      -5.315   4.217   4.950  0.00  0.00    -0.274 OA
ATOM     28  N   UNL     1      -3.301   3.465   4.403  0.00  0.00    -0.308 N 
ATOM     29  H   UNL     1      -2.529   3.523   3.818  0.00  0.00    +0.149 HD
BRANCH  28  30
ATOM     30  C   UNL     1      -3.325   2.479   5.487  0.00  0.00    +0.159 C 
BRANCH  30  31
ATOM     31  C   UNL     1      -2.043   1.688   5.476  0.00  0.00    +0.058 A 
ATOM     32  C   UNL     1      -0.997   2.070   6.295  0.00  0.00    +0.025 A 
ATOM     33  C   UNL     1       0.180   1.339   6.274  0.00  0.00    +0.003 A 
ATOM     34  C   UNL     1       0.259   0.239   5.433  0.00  0.00    +0.020 A 
ATOM     35  C   UNL     1      -0.829  -0.085   4.645  0.00  0.00    +0.111 A 
ATOM     36  N   UNL     1      -1.932   0.636   4.688  0.00  0.00    -0.258 NA
ENDBRANCH  30  31
ENDBRANCH  28  30
ENDBRANCH  25  26
ENDBRANCH   7  25
TORSDOF 5
