REMARK  Name = ZINC59389806
REMARK  5 active torsions:
REMARK  status: ('A' for Active; 'I' for Inactive)
REMARK    1  A    between atoms: C_4  and  C_7
REMARK    2  A    between atoms: N_16  and  C_17
REMARK    3  A    between atoms: C_17  and  C_18
REMARK    4  A    between atoms: C_18  and  C_19
REMARK    5  A    between atoms: C_22  and  N_25
REMARK                            x       y       z     vdW  Elec       q    Type
REMARK                         _______ _______ _______ _____ _____    ______ ____
ROOT
ATOM      1  C   UNL     1       3.711  -0.707  -0.038  0.00  0.00    -0.006 C 
ATOM      2  C   UNL     1       4.017  -1.174  -1.457  0.00  0.00    -0.047 A 
ATOM      3  C   UNL     1       3.786  -0.408  -2.597  0.00  0.00    +0.010 A 
ATOM      4  C   UNL     1       4.087  -0.905  -3.819  0.00  0.00    +0.045 A 
ATOM      5  S   UNL     1       4.729  -2.522  -3.412  0.00  0.00    -0.101 S 
ATOM      6  C   UNL     1       4.550  -2.413  -1.655  0.00  0.00    -0.010 A 
ATOM      7  C   UNL     1       4.891  -3.411  -0.597  0.00  0.00    +0.024 C 
ATOM      8  C   UNL     1       4.860  -2.681   0.756  0.00  0.00    -0.072 C 
ATOM      9  N   UNL     1       3.631  -1.880   0.841  0.00  0.00    +0.387 N 
ATOM     10  H   UNL     1       2.846  -2.450   0.562  0.00  0.00    -0.080 HD
ENDROOT
BRANCH   1  14
ATOM     11  C   UNL     1      -0.017   1.378   0.010  0.00  0.00    +0.000 A 
ATOM     12  C   UNL     1       1.171   2.086   0.002  0.00  0.00    +0.000 A 
ATOM     13  C   UNL     1       2.377   1.411  -0.013  0.00  0.00    +0.002 A 
ATOM     14  C   UNL     1       2.396   0.029  -0.020  0.00  0.00    -0.057 A 
ATOM     15  C   UNL     1       1.208  -0.679  -0.012  0.00  0.00    +0.002 A 
ATOM     16  C   UNL     1       0.002  -0.004   0.002  0.00  0.00    +0.000 A 
ENDBRANCH   1  14
BRANCH   9  17
ATOM     17  C   UNL     1       3.435  -1.434   2.227  0.00  0.00    -0.073 C 
BRANCH  17  18
ATOM     18  C   UNL     1       3.225  -2.651   3.130  0.00  0.00    +0.016 C 
BRANCH  18  19
ATOM     19  C   UNL     1       3.025  -2.193   4.551  0.00  0.00    -0.049 A 
ATOM     20  C   UNL     1       4.114  -2.042   5.389  0.00  0.00    +0.006 A 
ATOM     21  C   UNL     1       3.929  -1.622   6.693  0.00  0.00    +0.033 A 
ATOM     22  C   UNL     1       2.656  -1.353   7.159  0.00  0.00    +0.126 A 
ATOM     23  C   UNL     1       1.567  -1.503   6.321  0.00  0.00    +0.033 A 
ATOM     24  C   UNL     1       1.752  -1.919   5.016  0.00  0.00    +0.006 A 
BRANCH  22  25
ATOM     25  N   UNL     1       2.459  -0.904   8.556  0.00  0.00    +0.056 N 
ATOM     26  O   UNL     1       3.411  -0.772   9.289  0.00  0.00    -0.126 OA
ATOM     27  O   UNL     1       1.345  -0.668   8.963  0.00  0.00    -0.126 OA
ENDBRANCH  22  25
ENDBRANCH  18  19
ENDBRANCH  17  18
ENDBRANCH   9  17
TORSDOF 5
