REMARK  Name = ZINC19893841
REMARK  6 active torsions:
REMARK  status: ('A' for Active; 'I' for Inactive)
REMARK    1  A    between atoms: C_4  and  C_7
REMARK    2  A    between atoms: N_11  and  C_15
REMARK    3  A    between atoms: C_15  and  C_16
REMARK    4  A    between atoms: C_16  and  C_18
REMARK    5  A    between atoms: C_16  and  O_34
REMARK    6  A    between atoms: C_18  and  N_19
REMARK                            x       y       z     vdW  Elec       q    Type
REMARK                         _______ _______ _______ _____ _____    ______ ____
ROOT
ATOM      1  C   UNL     1       3.009   1.006  -0.444  0.00  0.00    +0.152 C 
ENDROOT
BRANCH   1   2
ATOM      2  O   UNL     1       3.386   2.341  -0.787  0.00  0.00    -0.388 OA
ATOM      3  H   UNL     1       3.914   2.538  -1.731  0.00  0.00    +0.210 HD
ENDBRANCH   1   2
BRANCH   1   4
ATOM      4  C   UNL     1       2.293   1.009   0.908  0.00  0.00    +0.150 C 
BRANCH   4   9
ATOM      5  C   UNL     1      -2.561   1.521   0.022  0.00  0.00    +0.028 C 
ATOM      6  C   UNL     1      -1.303   1.906   0.350  0.00  0.00    +0.080 C 
ATOM      7  C   UNL     1      -0.068   1.101   0.455  0.00  0.00    +0.260 C 
ATOM      8  O   UNL     1      -0.064  -0.096   0.236  0.00  0.00    -0.269 OA
ATOM      9  N   UNL     1       1.034   1.749   0.793  0.00  0.00    -0.226 N 
ATOM     10  C   UNL     1       1.026   3.076   1.034  0.00  0.00    +0.286 C 
ATOM     11  O   UNL     1       1.957   3.792   1.350  0.00  0.00    -0.262 OA
ATOM     12  S   UNL     1      -0.682   3.528   0.776  0.00  0.00    -0.026 S 
BRANCH   5  16
ATOM     13  C   UNL     1      -5.777   4.262   0.373  0.00  0.00    +0.000 A 
ATOM     14  C   UNL     1      -5.981   3.037  -0.239  0.00  0.00    +0.001 A 
ATOM     15  C   UNL     1      -4.940   2.140  -0.357  0.00  0.00    +0.008 A 
ATOM     16  C   UNL     1      -3.676   2.471   0.143  0.00  0.00    -0.024 A 
ATOM     17  C   UNL     1      -3.480   3.710   0.764  0.00  0.00    +0.008 A 
ATOM     18  C   UNL     1      -4.530   4.597   0.870  0.00  0.00    +0.001 A 
ENDBRANCH   5  16
ENDBRANCH   4   9
ENDBRANCH   1   4
BRANCH   1  19
ATOM     19  C   UNL     1       4.260   0.129  -0.357  0.00  0.00    +0.155 C 
BRANCH  19  20
ATOM     20  N   UNL     1       4.880   0.029  -1.680  0.00  0.00    -0.337 N 
ATOM     21  C   UNL     1       4.590  -0.947  -2.618  0.00  0.00    +0.050 A 
ATOM     22  C   UNL     1       3.715  -2.029  -2.604  0.00  0.00    +0.028 A 
ATOM     23  C   UNL     1       3.627  -2.860  -3.700  0.00  0.00    +0.022 A 
ATOM     24  C   UNL     1       4.406  -2.629  -4.824  0.00  0.00    +0.042 A 
ATOM     25  C   UNL     1       5.273  -1.557  -4.860  0.00  0.00    +0.030 A 
ATOM     26  C   UNL     1       5.375  -0.713  -3.756  0.00  0.00    +0.009 A 
ATOM     27  C   UNL     1       6.191   0.480  -3.465  0.00  0.00    +0.009 A 
ATOM     28  C   UNL     1       5.842   0.894  -2.171  0.00  0.00    +0.050 A 
ATOM     29  C   UNL     1       6.462   2.013  -1.623  0.00  0.00    +0.028 A 
ATOM     30  C   UNL     1       7.408   2.704  -2.350  0.00  0.00    +0.022 A 
ATOM     31  C   UNL     1       7.752   2.293  -3.630  0.00  0.00    +0.042 A 
ATOM     32  C   UNL     1       7.148   1.186  -4.189  0.00  0.00    +0.030 A 
ATOM     33 CL   UNL     1       8.945   3.176  -4.530  0.00  0.00    -0.084 Cl
ATOM     34 CL   UNL     1       4.281  -3.687  -6.195  0.00  0.00    -0.084 Cl
ENDBRANCH  19  20
ENDBRANCH   1  19
TORSDOF 6
