REMARK  Name = ZINC63513800
REMARK  7 active torsions:
REMARK  status: ('A' for Active; 'I' for Inactive)
REMARK    1  A    between atoms: C_7  and  C_10
REMARK    2  A    between atoms: C_10  and  C_11
REMARK    3  A    between atoms: C_11  and  N_12
REMARK    4  A    between atoms: C_13  and  C_15
REMARK    5  A    between atoms: C_15  and  N_16
REMARK    6  A    between atoms: N_30  and  C_31
REMARK    7  A    between atoms: C_31  and  C_32
REMARK                            x       y       z     vdW  Elec       q    Type
REMARK                         _______ _______ _______ _____ _____    ______ ____
ROOT
ATOM      1  N   UNL     1      -1.976  -7.005  -3.998  0.00  0.00    -0.212 N 
ATOM      2  C   UNL     1      -1.176  -7.953  -4.569  0.00  0.00    +0.257 C 
ATOM      3  O   UNL     1      -0.229  -8.433  -3.982  0.00  0.00    -0.272 OA
ATOM      4  C   UNL     1      -1.539  -8.369  -5.975  0.00  0.00    +0.194 C 
ATOM      5  C   UNL     1      -1.953  -7.097  -6.706  0.00  0.00    +0.006 C 
ATOM      6  C   UNL     1      -2.720  -6.170  -6.119  0.00  0.00    +0.094 C 
ATOM      7  N   UNL     1      -3.031  -6.474  -4.776  0.00  0.00    -0.268 N 
ATOM      8  C   UNL     1      -1.258  -7.137  -7.981  0.00  0.00    +0.003 A 
ATOM      9  C   UNL     1      -1.389  -6.332  -9.116  0.00  0.00    +0.010 A 
ATOM     10  C   UNL     1      -0.562  -6.616 -10.192  0.00  0.00    +0.001 A 
ATOM     11  C   UNL     1       0.356  -7.647 -10.149  0.00  0.00    +0.002 A 
ATOM     12  C   UNL     1       0.498  -8.460  -9.034  0.00  0.00    +0.024 A 
ATOM     13  C   UNL     1      -0.326  -8.200  -7.941  0.00  0.00    +0.038 A 
ATOM     14  N   UNL     1      -0.404  -8.902  -6.725  0.00  0.00    -0.310 N 
ATOM     15  H   UNL     1      -3.915  -6.326  -4.405  0.00  0.00    +0.170 HD
ENDROOT
BRANCH   1  16
ATOM     16  C   UNL     1      -1.752  -6.557  -2.622  0.00  0.00    +0.226 C 
BRANCH  16  18
ATOM     17  N   UNL     1      -0.458  -4.798  -1.460  0.00  0.00    -0.314 N 
ATOM     18  C   UNL     1      -0.811  -5.380  -2.623  0.00  0.00    +0.232 C 
ATOM     19  O   UNL     1      -0.371  -4.957  -3.671  0.00  0.00    -0.274 OA
ATOM     20  H   UNL     1      -0.810  -5.136  -0.622  0.00  0.00    +0.149 HD
BRANCH  17  21
ATOM     21  C   UNL     1       0.457  -3.653  -1.462  0.00  0.00    +0.108 C 
BRANCH  21  22
ATOM     22  C   UNL     1       0.691  -3.186  -0.024  0.00  0.00    +0.052 C 
BRANCH  22  29
ATOM     23  C   UNL     1      -0.016   1.348   0.009  0.00  0.00    +0.001 A 
ATOM     24  C   UNL     1       1.166   2.101   0.002  0.00  0.00    +0.002 A 
ATOM     25  C   UNL     1       2.391   1.535  -0.013  0.00  0.00    +0.026 A 
ATOM     26  C   UNL     1       2.529   0.120  -0.022  0.00  0.00    +0.043 A 
ATOM     27  N   UNL     1       3.587  -0.654  -0.037  0.00  0.00    -0.380 N 
ATOM     28  C   UNL     1       3.143  -2.053  -0.041  0.00  0.00    +0.144 C 
ATOM     29  C   UNL     1       1.631  -2.008  -0.025  0.00  0.00    -0.040 C 
ATOM     30  C   UNL     1       1.295  -0.698  -0.014  0.00  0.00    -0.001 A 
ATOM     31  C   UNL     1       0.002  -0.004   0.002  0.00  0.00    +0.010 A 
ATOM     32  H   UNL     1       4.509  -0.353  -0.045  0.00  0.00    +0.160 HD
ENDBRANCH  22  29
ENDBRANCH  21  22
ENDBRANCH  17  21
ENDBRANCH  16  18
ENDBRANCH   1  16
BRANCH  14  33
ATOM     33  C   UNL     1       0.492  -9.970  -6.273  0.00  0.00    +0.141 C 
BRANCH  33  34
ATOM     34  C   UNL     1      -0.052 -11.304  -6.718  0.00  0.00    -0.030 A 
ATOM     35  C   UNL     1      -0.925 -12.000  -5.904  0.00  0.00    +0.008 A 
ATOM     36  C   UNL     1      -1.425 -13.223  -6.312  0.00  0.00    +0.038 A 
ATOM     37  C   UNL     1      -1.050 -13.749  -7.536  0.00  0.00    +0.123 A 
ATOM     38  C   UNL     1      -0.175 -13.051  -8.351  0.00  0.00    +0.038 A 
ATOM     39  C   UNL     1       0.319 -11.826  -7.943  0.00  0.00    +0.008 A 
ATOM     40  F   UNL     1      -1.537 -14.945  -7.936  0.00  0.00    -0.205 F 
ENDBRANCH  33  34
ENDBRANCH  14  33
TORSDOF 7
