REMARK  Name = ZINC04477254
REMARK  7 active torsions:
REMARK  status: ('A' for Active; 'I' for Inactive)
REMARK    1  A    between atoms: C_1  and  C_2
REMARK    2  A    between atoms: C_2  and  C_3
REMARK    3  A    between atoms: C_3  and  C_26
REMARK    4  A    between atoms: N_6  and  C_10
REMARK    5  A    between atoms: C_10  and  C_11
REMARK    6  A    between atoms: C_23  and  C_24
REMARK    7  A    between atoms: C_23  and  C_25
REMARK                            x       y       z     vdW  Elec       q    Type
REMARK                         _______ _______ _______ _____ _____    ______ ____
ROOT
ATOM      1  C   UNL     1       1.251  -0.736   3.604  0.00  0.00    +0.214 C 
ENDROOT
BRANCH   1   2
ATOM      2  C   UNL     1       0.700  -0.091   2.359  0.00  0.00    +0.239 C 
ATOM      3  O   UNL     1       0.795  -0.657   1.290  0.00  0.00    -0.273 OA
ATOM      4  N   UNL     1       0.103   1.115   2.433  0.00  0.00    -0.254 N 
ATOM      5  C   UNL     1       0.057   1.828   3.641  0.00  0.00    +0.059 A 
ATOM      6  C   UNL     1       0.045   1.170   4.858  0.00  0.00    +0.025 A 
ATOM      7  C   UNL     1      -0.005   1.901   6.032  0.00  0.00    +0.002 A 
ATOM      8  C   UNL     1      -0.045   3.283   5.990  0.00  0.00    +0.002 A 
ATOM      9  C   UNL     1      -0.032   3.946   4.777  0.00  0.00    +0.025 A 
ATOM     10  C   UNL     1       0.021   3.222   3.596  0.00  0.00    +0.055 A 
ATOM     11  N   UNL     1       0.046   3.874   2.358  0.00  0.00    -0.282 N 
ATOM     12  C   UNL     1      -0.181   3.194   1.218  0.00  0.00    +0.241 C 
ATOM     13  O   UNL     1      -0.111   3.770   0.153  0.00  0.00    -0.273 OA
ATOM     14  C   UNL     1      -0.521   1.726   1.249  0.00  0.00    +0.113 C 
ATOM     15  C   UNL     1       0.010   1.050  -0.016  0.00  0.00    +0.042 C 
ATOM     16  C   UNL     1      -2.039   1.552   1.324  0.00  0.00    +0.042 C 
ATOM     17  H   UNL     1       0.229   4.826   2.320  0.00  0.00    +0.155 HD
ENDBRANCH   1   2
BRANCH   1  21
ATOM     18  C   UNL     1       3.061  -3.843   2.672  0.00  0.00    +0.138 C 
ATOM     19  C   UNL     1       1.795  -3.096   3.043  0.00  0.00    +0.251 C 
ATOM     20  O   UNL     1       0.678  -3.556   3.148  0.00  0.00    -0.272 OA
ATOM     21  N   UNL     1       2.169  -1.815   3.230  0.00  0.00    -0.215 N 
ATOM     22  C   UNL     1       3.483  -1.651   3.038  0.00  0.00    +0.310 C 
ATOM     23  O   UNL     1       4.055  -0.585   3.153  0.00  0.00    -0.252 OA
ATOM     24  N   UNL     1       4.100  -2.799   2.703  0.00  0.00    -0.281 N 
ATOM     25  H   UNL     1       5.045  -2.916   2.518  0.00  0.00    +0.152 HD
BRANCH  18  26
ATOM     26  C   UNL     1       2.946  -4.436   1.291  0.00  0.00    -0.015 A 
ATOM     27  C   UNL     1       2.543  -5.749   1.134  0.00  0.00    +0.006 A 
ATOM     28  C   UNL     1       2.433  -6.291  -0.133  0.00  0.00    +0.000 A 
ATOM     29  C   UNL     1       2.736  -5.524  -1.242  0.00  0.00    +0.000 A 
ATOM     30  C   UNL     1       3.143  -4.212  -1.085  0.00  0.00    +0.000 A 
ATOM     31  C   UNL     1       3.249  -3.668   0.182  0.00  0.00    +0.006 A 
ENDBRANCH  18  26
BRANCH  18  33
ATOM     32  C   UNL     1       3.422  -4.314   5.098  0.00  0.00    +0.007 C 
ATOM     33  C   UNL     1       3.363  -4.934   3.701  0.00  0.00    +0.037 C 
ENDBRANCH  18  33
ENDBRANCH   1  21
TORSDOF 4
