REMARK  Name = ZINC67472312
REMARK  6 active torsions:
REMARK  status: ('A' for Active; 'I' for Inactive)
REMARK    1  A    between atoms: C_1  and  C_2
REMARK    2  A    between atoms: C_6  and  C_13
REMARK    3  A    between atoms: C_13  and  N_14
REMARK    4  A    between atoms: N_14  and  C_15
REMARK    5  A    between atoms: C_17  and  C_22
REMARK    6  A    between atoms: C_19  and  C_21
REMARK                            x       y       z     vdW  Elec       q    Type
REMARK                         _______ _______ _______ _____ _____    ______ ____
ROOT
ATOM      1  C   UNL     1      -0.018   1.503   0.010  0.00  0.00    +0.044 C 
ATOM      2  C   UNL     1       0.002  -0.004   0.002  0.00  0.00    -0.047 A 
ATOM      3  C   UNL     1       0.006  -0.684  -1.207  0.00  0.00    +0.004 A 
ATOM      4  C   UNL     1       0.025  -2.050  -1.235  0.00  0.00    +0.012 A 
ATOM      5  C   UNL     1       0.040  -2.768  -0.035  0.00  0.00    +0.022 A 
ATOM      6  C   UNL     1       0.061  -4.234  -0.030  0.00  0.00    -0.013 A 
ATOM      7  C   UNL     1       0.077  -4.870   1.169  0.00  0.00    +0.097 A 
ATOM      8  C   UNL     1       0.072  -4.118   2.363  0.00  0.00    +0.338 A 
ATOM      9  O   UNL     1       0.086  -4.701   3.432  0.00  0.00    -0.245 OA
ATOM     10  O   UNL     1       0.053  -2.776   2.350  0.00  0.00    -0.422 OA
ATOM     11  C   UNL     1       0.037  -2.082   1.193  0.00  0.00    +0.140 A 
ATOM     12  C   UNL     1       0.023  -0.693   1.196  0.00  0.00    +0.050 A 
ENDROOT
BRANCH   6  13
ATOM     13  C   UNL     1       0.066  -5.012  -1.320  0.00  0.00    +0.137 C 
BRANCH  13  14
ATOM     14  N   UNL     1      -1.311  -5.181  -1.793  0.00  0.00    -0.340 N 
ATOM     15  H   UNL     1      -2.048  -4.811  -1.283  0.00  0.00    +0.146 HD
BRANCH  14  16
ATOM     16  C   UNL     1      -1.562  -5.875  -2.979  0.00  0.00    +0.028 A 
ATOM     17  C   UNL     1      -0.507  -6.410  -3.708  0.00  0.00    +0.026 A 
ATOM     18  C   UNL     1      -0.759  -7.096  -4.880  0.00  0.00    -0.048 A 
ATOM     19  C   UNL     1      -2.058  -7.250  -5.328  0.00  0.00    +0.006 A 
ATOM     20  C   UNL     1      -3.110  -6.718  -4.605  0.00  0.00    -0.048 A 
ATOM     21  C   UNL     1      -2.866  -6.036  -3.429  0.00  0.00    +0.026 A 
ATOM     22  C   UNL     1      -4.524  -6.888  -5.097  0.00  0.00    +0.044 C 
ATOM     23  C   UNL     1       0.384  -7.678  -5.672  0.00  0.00    +0.044 C 
ENDBRANCH  14  16
ENDBRANCH  13  14
ENDBRANCH   6  13
TORSDOF 3
