REMARK  Name = ZINC39702975
REMARK  11 active torsions:
REMARK  status: ('A' for Active; 'I' for Inactive)
REMARK    1  A    between atoms: C_1  and  C_2
REMARK    2  A    between atoms: C_2  and  C_3
REMARK    3  A    between atoms: C_3  and  C_4
REMARK    4  A    between atoms: C_4  and  O_5
REMARK    5  A    between atoms: O_5  and  C_6
REMARK    6  A    between atoms: C_6  and  C_8
REMARK    7  A    between atoms: C_10  and  C_15
REMARK    8  A    between atoms: C_18  and  C_20
REMARK    9  A    between atoms: C_21  and  C_22
REMARK   10  A    between atoms: C_21  and  C_24
REMARK   11  A    between atoms: C_30  and  C_34
REMARK                            x       y       z     vdW  Elec       q    Type
REMARK                         _______ _______ _______ _____ _____    ______ ____
ROOT
ATOM      1  C   UNL     1      -7.853  -3.332   0.048  0.00  0.00    +0.136 A 
ATOM      2  C   UNL     1      -9.151  -3.755   0.063  0.00  0.00    +0.050 A 
ATOM      3  C   UNL     1      -9.957  -2.612   0.069  0.00  0.00    +0.050 A 
ATOM      4  C   UNL     1      -9.105  -1.524   0.057  0.00  0.00    +0.130 A 
ATOM      5  O   UNL     1      -7.837  -1.986   0.050  0.00  0.00    -0.455 OA
ENDROOT
BRANCH   1   8
ATOM      6  C   UNL     1      -4.268  -4.479   0.019  0.00  0.00    +0.078 A 
ATOM      7  C   UNL     1      -5.386  -3.647   0.028  0.00  0.00    +0.028 A 
ATOM      8  C   UNL     1      -6.663  -4.205   0.037  0.00  0.00    +0.018 A 
ATOM      9  C   UNL     1      -6.815  -5.596   0.037  0.00  0.00    +0.013 A 
ATOM     10  C   UNL     1      -5.705  -6.414   0.028  0.00  0.00    +0.021 A 
ATOM     11  C   UNL     1      -4.435  -5.867   0.013  0.00  0.00    +0.055 A 
ATOM     12 CL   UNL     1      -3.044  -6.907  -0.006  0.00  0.00    -0.083 Cl
BRANCH   6  13
ATOM     13  C   UNL     1      -2.912  -3.896   0.009  0.00  0.00    +0.341 C 
ATOM     14  O   UNL     1      -1.938  -4.623  -0.004  0.00  0.00    -0.245 OA
BRANCH  13  15
ATOM     15  O   UNL     1      -2.753  -2.558   0.015  0.00  0.00    -0.461 OA
BRANCH  15  16
ATOM     16  C   UNL     1      -1.413  -2.063   0.004  0.00  0.00    +0.232 C 
BRANCH  16  17
ATOM     17  C   UNL     1      -1.433  -0.534   0.013  0.00  0.00    +0.041 C 
BRANCH  17  19
ATOM     18  C   UNL     1      -0.019   1.526   0.010  0.00  0.00    +0.004 C 
ATOM     19  C   UNL     1       0.002  -0.004   0.002  0.00  0.00    -0.000 C 
ENDBRANCH  17  19
ENDBRANCH  16  17
ENDBRANCH  15  16
ENDBRANCH  13  15
ENDBRANCH   6  13
ENDBRANCH   1   8
BRANCH   4  20
ATOM     20  C   UNL     1      -9.495  -0.164   0.056  0.00  0.00    +0.064 C 
ATOM     21  C   UNL     1      -8.551   0.811   0.044  0.00  0.00    +0.075 C 
BRANCH  21  22
ATOM     22  C   UNL     1      -8.966   2.260   0.044  0.00  0.00    +0.216 C 
ATOM     23  N   UNL     1      -8.410   2.943  -1.131  0.00  0.00    -0.359 N 
ATOM     24  C   UNL     1      -7.636   3.897  -0.699  0.00  0.00    +0.060 A 
ATOM     25  C   UNL     1      -6.816   4.905  -1.384  0.00  0.00    +0.027 A 
ATOM     26  C   UNL     1      -6.101   5.786  -0.656  0.00  0.00    +0.005 A 
ATOM     27  C   UNL     1      -6.101   5.786   0.750  0.00  0.00    -0.048 A 
ATOM     28  C   UNL     1      -6.818   4.904   1.476  0.00  0.00    +0.030 A 
ATOM     29  C   UNL     1      -7.638   3.896   0.789  0.00  0.00    +0.061 A 
ATOM     30  N   UNL     1      -8.414   2.942   1.221  0.00  0.00    -0.359 N 
ATOM     31  C   UNL     1      -5.268   6.811   1.475  0.00  0.00    +0.044 C 
ATOM     32  H   UNL     1      -8.587   2.724  -2.059  0.00  0.00    +0.162 HD
ATOM     33  H   UNL     1      -8.594   2.724   2.148  0.00  0.00    +0.162 HD
ENDBRANCH  21  22
BRANCH  21  34
ATOM     34  C   UNL     1      -7.162   0.464   0.030  0.00  0.00    +0.099 C 
ATOM     35  N   UNL     1      -6.060   0.189   0.020  0.00  0.00    -0.191 NA
ENDBRANCH  21  34
ENDBRANCH   4  20
TORSDOF 9
