REMARK  Name = ZINC01204060
REMARK  7 active torsions:
REMARK  status: ('A' for Active; 'I' for Inactive)
REMARK    1  A    between atoms: C_1  and  C_2
REMARK    2  A    between atoms: C_3  and  C_19
REMARK    3  A    between atoms: C_9  and  C_12
REMARK    4  A    between atoms: C_19  and  C_21
REMARK    5  A    between atoms: C_19  and  C_27
REMARK    6  A    between atoms: C_27  and  C_29
REMARK    7  A    between atoms: C_27  and  C_31
REMARK                            x       y       z     vdW  Elec       q    Type
REMARK                         _______ _______ _______ _____ _____    ______ ____
ROOT
ATOM      1  C   UNL     1      -0.245   1.332   0.722  0.00  0.00    +0.065 C 
ATOM      2  C   UNL     1      -0.871   1.558  -0.630  0.00  0.00    +0.039 A 
ATOM      3  C   UNL     1      -0.975   2.746  -1.261  0.00  0.00    +0.048 A 
ATOM      4  C   UNL     1      -1.622   2.529  -2.500  0.00  0.00    +0.277 A 
ATOM      5  N   UNL     1      -1.896   1.212  -2.593  0.00  0.00    -0.194 N 
ATOM      6  N   UNL     1      -1.422   0.596  -1.427  0.00  0.00    -0.292 N 
ATOM      7  C   UNL     1      -2.528   0.579  -3.654  0.00  0.00    +0.196 A 
ATOM      8  N   UNL     1      -2.830  -0.697  -3.807  0.00  0.00    -0.221 NA
ATOM      9  C   UNL     1      -3.442  -1.133  -4.898  0.00  0.00    +0.080 A 
ATOM     10  C   UNL     1      -3.767  -0.246  -5.885  0.00  0.00    +0.077 A 
ATOM     11  S   UNL     1      -3.157   1.278  -5.175  0.00  0.00    -0.056 S 
ATOM     12  O   UNL     1      -1.885   3.378  -3.332  0.00  0.00    -0.265 OA
ATOM     13  H   UNL     1      -1.478  -0.350  -1.220  0.00  0.00    +0.187 HD
ENDROOT
BRANCH   9  14
ATOM     14  C   UNL     1      -3.771  -2.572  -5.047  0.00  0.00    +0.001 A 
ATOM     15  C   UNL     1      -4.409  -3.028  -6.199  0.00  0.00    +0.010 A 
ATOM     16  C   UNL     1      -4.712  -4.368  -6.332  0.00  0.00    +0.001 A 
ATOM     17  C   UNL     1      -4.385  -5.257  -5.325  0.00  0.00    +0.000 A 
ATOM     18  C   UNL     1      -3.752  -4.810  -4.179  0.00  0.00    +0.001 A 
ATOM     19  C   UNL     1      -3.437  -3.474  -4.037  0.00  0.00    +0.010 A 
ENDBRANCH   9  14
BRANCH   3  20
ATOM     20  C   UNL     1      -0.488   4.072  -0.737  0.00  0.00    +0.082 C 
BRANCH  20  21
ATOM     21  C   UNL     1      -1.670   4.956  -0.431  0.00  0.00    -0.038 A 
ATOM     22  C   UNL     1      -2.472   5.418  -1.458  0.00  0.00    +0.004 A 
ATOM     23  C   UNL     1      -3.556   6.229  -1.178  0.00  0.00    +0.000 A 
ATOM     24  C   UNL     1      -3.838   6.577   0.130  0.00  0.00    +0.000 A 
ATOM     25  C   UNL     1      -3.037   6.114   1.157  0.00  0.00    +0.000 A 
ATOM     26  C   UNL     1      -1.955   5.300   0.877  0.00  0.00    +0.004 A 
ENDBRANCH  20  21
BRANCH  20  27
ATOM     27  C   UNL     1       0.392   4.745  -1.792  0.00  0.00    +0.189 C 
BRANCH  27  28
ATOM     28  C   UNL     1       0.879   6.071  -1.269  0.00  0.00    +0.228 C 
ATOM     29  O   UNL     1       2.069   6.279  -1.155  0.00  0.00    -0.275 OA
ATOM     30  N   UNL     1      -0.007   7.027  -0.927  0.00  0.00    -0.328 N 
ATOM     31  H   UNL     1      -0.959   6.862  -1.018  0.00  0.00    +0.145 HD
ATOM     32  H   UNL     1       0.306   7.881  -0.590  0.00  0.00    +0.145 HD
ENDBRANCH  27  28
BRANCH  27  33
ATOM     33  C   UNL     1       1.546   3.882  -2.091  0.00  0.00    +0.076 C 
ATOM     34  N   UNL     1       2.437   3.215  -2.322  0.00  0.00    -0.196 NA
ENDBRANCH  27  33
ENDBRANCH  20  27
ENDBRANCH   3  20
TORSDOF 6
