REMARK  Name = ZINC13132417
REMARK  4 active torsions:
REMARK  status: ('A' for Active; 'I' for Inactive)
REMARK    1  A    between atoms: C_1  and  C_2
REMARK    2  A    between atoms: C_4  and  C_23
REMARK    3  A    between atoms: C_10  and  C_22
REMARK    4  A    between atoms: C_13  and  C_16
REMARK                            x       y       z     vdW  Elec       q    Type
REMARK                         _______ _______ _______ _____ _____    ______ ____
ROOT
ATOM      1  C   UNL     1      -0.018   1.503   0.010  0.00  0.00    +0.044 C 
ATOM      2  C   UNL     1       0.002  -0.004   0.002  0.00  0.00    -0.049 A 
ATOM      3  C   UNL     1       0.006  -0.687  -1.202  0.00  0.00    +0.008 A 
ATOM      4  C   UNL     1       0.019  -2.070  -1.230  0.00  0.00    -0.029 A 
ATOM      5  C   UNL     1       0.032  -2.783  -0.044  0.00  0.00    +0.041 A 
ATOM      6  C   UNL     1       0.037  -2.084   1.180  0.00  0.00    +0.022 A 
ATOM      7  C   UNL     1       0.023  -0.700   1.197  0.00  0.00    +0.015 A 
ATOM      8  C   UNL     1       0.081  -2.906   2.404  0.00  0.00    +0.073 A 
ATOM      9  C   UNL     1      -0.119  -2.596   3.703  0.00  0.00    +0.052 A 
ATOM     10  C   UNL     1       0.036  -3.770   4.449  0.00  0.00    +0.061 A 
ATOM     11  N   UNL     1       0.323  -4.755   3.629  0.00  0.00    -0.174 NA
ATOM     12  N   UNL     1       0.366  -4.251   2.334  0.00  0.00    -0.238 N 
ATOM     13  C   UNL     1       0.657  -4.925   1.067  0.00  0.00    +0.224 C 
ATOM     14  N   UNL     1       0.030  -4.177  -0.031  0.00  0.00    -0.318 N 
ATOM     15  C   UNL     1      -0.102  -3.885   5.945  0.00  0.00    +0.067 C 
ATOM     16  C   UNL     1       0.020  -2.798  -2.549  0.00  0.00    +0.045 C 
ATOM     17  H   UNL     1      -0.392  -4.661  -0.758  0.00  0.00    +0.148 HD
ENDROOT
BRANCH  13  18
ATOM     18  C   UNL     1       2.149  -4.978   0.856  0.00  0.00    +0.013 A 
ATOM     19  C   UNL     1       2.857  -6.138   1.132  0.00  0.00    +0.010 A 
ATOM     20  C   UNL     1       4.227  -6.140   0.923  0.00  0.00    +0.020 A 
ATOM     21  C   UNL     1       4.838  -4.994   0.449  0.00  0.00    +0.111 A 
ATOM     22  N   UNL     1       4.133  -3.909   0.197  0.00  0.00    -0.263 NA
ATOM     23  C   UNL     1       2.827  -3.873   0.379  0.00  0.00    +0.118 A 
ENDBRANCH  13  18
TORSDOF 1
