REMARK  Name = ZINC12468917
REMARK  7 active torsions:
REMARK  status: ('A' for Active; 'I' for Inactive)
REMARK    1  A    between atoms: C_1  and  C_2
REMARK    2  A    between atoms: C_4  and  C_38
REMARK    3  A    between atoms: C_9  and  C_14
REMARK    4  A    between atoms: C_14  and  C_16
REMARK    5  A    between atoms: C_14  and  N_27
REMARK    6  A    between atoms: N_20  and  C_21
REMARK    7  A    between atoms: C_35  and  C_37
REMARK                            x       y       z     vdW  Elec       q    Type
REMARK                         _______ _______ _______ _____ _____    ______ ____
ROOT
ATOM      1  C   UNL     1       1.133   7.465   0.030  0.00  0.00    +0.179 C 
ENDROOT
BRANCH   1  10
ATOM      2  C   UNL     1      -1.330   0.452   0.626  0.00  0.00    +0.044 C 
ATOM      3  C   UNL     1      -0.203   1.451   0.605  0.00  0.00    -0.050 A 
ATOM      4  C   UNL     1       1.106   1.015   0.759  0.00  0.00    +0.008 A 
ATOM      5  C   UNL     1       2.154   1.911   0.737  0.00  0.00    -0.026 A 
ATOM      6  C   UNL     1       1.898   3.267   0.564  0.00  0.00    +0.052 A 
ATOM      7  C   UNL     1       0.569   3.706   0.414  0.00  0.00    -0.001 A 
ATOM      8  C   UNL     1      -0.478   2.779   0.440  0.00  0.00    +0.013 A 
ATOM      9  C   UNL     1       0.310   5.136   0.233  0.00  0.00    +0.021 A 
ATOM     10  C   UNL     1       1.365   5.988   0.216  0.00  0.00    +0.045 A 
ATOM     11  C   UNL     1       2.679   5.496   0.370  0.00  0.00    +0.255 A 
ATOM     12  O   UNL     1       3.613   6.279   0.351  0.00  0.00    -0.268 OA
ATOM     13  N   UNL     1       2.926   4.185   0.538  0.00  0.00    -0.322 N 
ATOM     14  H   UNL     1       3.841   3.881   0.641  0.00  0.00    +0.169 HD
ATOM     15  C   UNL     1       3.570   1.422   0.899  0.00  0.00    +0.046 C 
ENDBRANCH   1  10
BRANCH   1  16
ATOM     16  N   UNL     1       1.925   7.946  -1.110  0.00  0.00    -0.312 N 
ATOM     17  C   UNL     1       1.514   7.334  -2.300  0.00  0.00    +0.034 A 
ATOM     18  C   UNL     1       1.141   6.013  -2.545  0.00  0.00    +0.023 A 
ATOM     19  C   UNL     1       0.773   5.621  -3.815  0.00  0.00    +0.002 A 
ATOM     20  C   UNL     1       0.768   6.534  -4.853  0.00  0.00    +0.000 A 
ATOM     21  C   UNL     1       1.133   7.847  -4.617  0.00  0.00    +0.005 A 
ATOM     22  C   UNL     1       1.501   8.245  -3.349  0.00  0.00    -0.025 A 
ATOM     23  C   UNL     1       1.935   9.591  -2.804  0.00  0.00    +0.059 C 
ATOM     24  C   UNL     1       1.781   9.408  -1.276  0.00  0.00    +0.076 C 
ATOM     25  C   UNL     1       0.400   9.874  -0.810  0.00  0.00    +0.028 C 
ENDBRANCH   1  16
BRANCH   1  26
ATOM     26  C   UNL     1       1.552   8.200   1.278  0.00  0.00    +0.177 A 
ATOM     27  N   UNL     1       2.780   8.440   1.670  0.00  0.00    -0.111 NA
ATOM     28  N   UNL     1       2.723   9.092   2.780  0.00  0.00    -0.023 NA
ATOM     29  N   UNL     1       1.491   9.267   3.110  0.00  0.00    -0.044 NA
ATOM     30  N   UNL     1       0.739   8.731   2.209  0.00  0.00    -0.224 N 
BRANCH  30  31
ATOM     31  C   UNL     1      -0.726   8.705   2.202  0.00  0.00    +0.111 C 
ATOM     32  C   UNL     1      -1.262  10.138   2.193  0.00  0.00    +0.027 C 
ATOM     33  C   UNL     1      -2.792  10.111   2.185  0.00  0.00    +0.002 C 
ATOM     34  C   UNL     1      -3.295   9.386   3.435  0.00  0.00    +0.000 C 
ATOM     35  C   UNL     1      -2.759   7.953   3.444  0.00  0.00    +0.002 C 
ATOM     36  C   UNL     1      -1.230   7.980   3.452  0.00  0.00    +0.027 C 
ENDBRANCH  30  31
ENDBRANCH   1  26
TORSDOF 4
