REMARK  Name = ZINC32150921
REMARK  5 active torsions:
REMARK  status: ('A' for Active; 'I' for Inactive)
REMARK    1  A    between atoms: C_6  and  N_7
REMARK    2  A    between atoms: N_7  and  C_8
REMARK    3  A    between atoms: C_8  and  C_9
REMARK    4  A    between atoms: C_9  and  C_11
REMARK    5  A    between atoms: C_9  and  O_20
REMARK                            x       y       z     vdW  Elec       q    Type
REMARK                         _______ _______ _______ _____ _____    ______ ____
ROOT
ATOM      1  C   UNL     1      -2.703   4.025   0.037  0.00  0.00    +0.162 C 
ENDROOT
BRANCH   1   2
ATOM      2  C   UNL     1      -2.724   5.527  -0.079  0.00  0.00    -0.014 A 
ATOM      3  C   UNL     1      -2.487   6.309   1.037  0.00  0.00    +0.010 A 
ATOM      4  C   UNL     1      -2.506   7.687   0.936  0.00  0.00    +0.050 A 
ATOM      5  C   UNL     1      -2.762   8.290  -0.285  0.00  0.00    +0.166 A 
ATOM      6  C   UNL     1      -3.000   7.503  -1.409  0.00  0.00    +0.167 A 
ATOM      7  C   UNL     1      -2.974   6.122  -1.302  0.00  0.00    +0.055 A 
ATOM      8  O   UNL     1      -3.224   8.323  -2.477  0.00  0.00    -0.453 OA
ATOM      9  C   UNL     1      -2.717   9.613  -2.083  0.00  0.00    +0.466 C 
ATOM     10  O   UNL     1      -2.836   9.603  -0.648  0.00  0.00    -0.453 OA
ENDBRANCH   1   2
BRANCH   1  11
ATOM     11  O   UNL     1      -3.331   3.632   1.259  0.00  0.00    -0.386 OA
ATOM     12  H   UNL     1      -4.381   3.899   1.447  0.00  0.00    +0.210 HD
ENDBRANCH   1  11
BRANCH   1  13
ATOM     13  C   UNL     1      -1.254   3.533   0.027  0.00  0.00    +0.137 C 
BRANCH  13  14
ATOM     14  N   UNL     1      -1.236   2.068   0.019  0.00  0.00    -0.341 N 
ATOM     15  H   UNL     1      -2.181   1.506   0.020  0.00  0.00    +0.146 HD
BRANCH  14  21
ATOM     16  C   UNL     1       1.178   2.093   0.002  0.00  0.00    +0.024 A 
ATOM     17  C   UNL     1       2.381   1.415  -0.013  0.00  0.00    +0.022 A 
ATOM     18  C   UNL     1       2.397   0.031  -0.021  0.00  0.00    +0.041 A 
ATOM     19  C   UNL     1       1.208  -0.677  -0.013  0.00  0.00    +0.022 A 
ATOM     20  C   UNL     1       0.002  -0.004   0.002  0.00  0.00    +0.024 A 
ATOM     21  C   UNL     1      -0.017   1.385   0.010  0.00  0.00    +0.027 A 
ATOM     22 CL   UNL     1       3.911  -0.818  -0.039  0.00  0.00    -0.084 Cl
ENDBRANCH  14  21
ENDBRANCH  13  14
ENDBRANCH   1  13
TORSDOF 5
