REMARK  Name = ZINC12361108
REMARK  3 active torsions:
REMARK  status: ('A' for Active; 'I' for Inactive)
REMARK    1  A    between atoms: C_6  and  C_7
REMARK    2  A    between atoms: C_7  and  S_8
REMARK    3  A    between atoms: S_8  and  C_9
REMARK                            x       y       z     vdW  Elec       q    Type
REMARK                         _______ _______ _______ _____ _____    ______ ____
ROOT
ATOM      1  C   UNL     1       1.244  -4.520  -1.450  0.00  0.00    +0.180 C 
ATOM      2  N   UNL     1       1.266  -4.921  -0.220  0.00  0.00    -0.106 NA
ATOM      3  S   UNL     1       1.296  -6.538   0.148  0.00  0.00    +0.103 S 
ATOM      4  O   UNL     1      -0.038  -6.918   0.457  0.00  0.00    -0.146 OA
ATOM      5  O   UNL     1       2.378  -6.729   1.050  0.00  0.00    -0.146 OA
ATOM      6  C   UNL     1       1.728  -7.365  -1.349  0.00  0.00    +0.135 A 
ATOM      7  C   UNL     1       2.130  -8.682  -1.336  0.00  0.00    +0.051 A 
ATOM      8  C   UNL     1       2.470  -9.309  -2.524  0.00  0.00    +0.043 A 
ATOM      9  C   UNL     1       2.404  -8.612  -3.718  0.00  0.00    +0.022 A 
ATOM     10  C   UNL     1       1.999  -7.292  -3.732  0.00  0.00    +0.027 A 
ATOM     11  C   UNL     1       1.657  -6.658  -2.544  0.00  0.00    +0.060 A 
ATOM     12  N   UNL     1       1.244  -5.328  -2.546  0.00  0.00    -0.291 N 
ATOM     13 CL   UNL     1       2.979 -10.969  -2.515  0.00  0.00    -0.083 Cl
ATOM     14  H   UNL     1       0.937  -4.951  -3.386  0.00  0.00    +0.154 HD
ENDROOT
BRANCH   1  15
ATOM     15  S   UNL     1       1.219  -2.780  -1.731  0.00  0.00    -0.084 S 
BRANCH  15  16
ATOM     16  C   UNL     1       1.227  -2.186  -0.021  0.00  0.00    +0.112 C 
BRANCH  16  22
ATOM     17  C   UNL     1       0.002  -0.004   0.002  0.00  0.00    +0.007 A 
ATOM     18  C   UNL     1      -0.017   1.378   0.010  0.00  0.00    +0.038 A 
ATOM     19  C   UNL     1       1.173   2.086   0.002  0.00  0.00    +0.123 A 
ATOM     20  C   UNL     1       2.381   1.408  -0.013  0.00  0.00    +0.038 A 
ATOM     21  C   UNL     1       2.397   0.026  -0.020  0.00  0.00    +0.007 A 
ATOM     22  C   UNL     1       1.208  -0.679  -0.013  0.00  0.00    -0.037 A 
ATOM     23  F   UNL     1       1.156   3.437   0.009  0.00  0.00    -0.205 F 
ENDBRANCH  16  22
ENDBRANCH  15  16
ENDBRANCH   1  15
TORSDOF 3
