REMARK  Name = ZINC20079809
REMARK  7 active torsions:
REMARK  status: ('A' for Active; 'I' for Inactive)
REMARK    1  A    between atoms: C_1  and  C_2
REMARK    2  A    between atoms: C_6  and  C_15
REMARK    3  A    between atoms: C_13  and  C_14
REMARK    4  A    between atoms: C_15  and  C_17
REMARK    5  A    between atoms: C_15  and  N_28
REMARK    6  A    between atoms: N_21  and  C_22
REMARK    7  A    between atoms: N_31  and  C_34
REMARK                            x       y       z     vdW  Elec       q    Type
REMARK                         _______ _______ _______ _____ _____    ______ ____
ROOT
ATOM      1  C   UNL     1       1.817  -1.796  -0.025  0.00  0.00    +0.162 C 
ENDROOT
BRANCH   1   7
ATOM      2  C   UNL     1       3.664  -0.127   7.005  0.00  0.00    +0.044 C 
ATOM      3  C   UNL     1       3.637  -1.091   5.847  0.00  0.00    -0.047 A 
ATOM      4  C   UNL     1       3.062  -0.714   4.666  0.00  0.00    +0.013 A 
ATOM      5  C   UNL     1       3.037  -1.608   3.591  0.00  0.00    -0.001 A 
ATOM      6  C   UNL     1       2.430  -1.237   2.312  0.00  0.00    +0.021 A 
ATOM      7  C   UNL     1       2.434  -2.146   1.305  0.00  0.00    +0.042 A 
ATOM      8  C   UNL     1       3.009  -3.420   1.500  0.00  0.00    +0.254 A 
ATOM      9  O   UNL     1       2.998  -4.223   0.583  0.00  0.00    -0.268 OA
ATOM     10  N   UNL     1       3.573  -3.768   2.670  0.00  0.00    -0.322 N 
ATOM     11  H   UNL     1       4.021  -4.766   2.789  0.00  0.00    +0.169 HD
ATOM     12  C   UNL     1       3.602  -2.890   3.732  0.00  0.00    +0.049 A 
ATOM     13  C   UNL     1       4.181  -3.251   4.944  0.00  0.00    +0.030 A 
ATOM     14  C   UNL     1       4.195  -2.353   5.990  0.00  0.00    -0.046 A 
ATOM     15  C   UNL     1       4.824  -2.747   7.302  0.00  0.00    +0.044 C 
ENDBRANCH   1   7
BRANCH   1  16
ATOM     16  N   UNL     1       2.836  -1.893  -1.078  0.00  0.00    -0.292 NA
ATOM     17  C   UNL     1       3.997  -1.048  -0.768  0.00  0.00    +0.067 C 
ATOM     18  C   UNL     1       5.066  -1.238  -1.846  0.00  0.00    -0.063 C 
ATOM     19  N   UNL     1       4.502  -0.892  -3.158  0.00  0.00    +0.383 N 
ATOM     20  C   UNL     1       3.341  -1.737  -3.469  0.00  0.00    -0.063 C 
ATOM     21  C   UNL     1       2.272  -1.547  -2.390  0.00  0.00    +0.067 C 
ATOM     22  H   UNL     1       4.160   0.153  -3.116  0.00  0.00    -0.081 HD
BRANCH  19  23
ATOM     23  C   UNL     1       5.521  -0.989  -4.212  0.00  0.00    -0.068 C 
ATOM     24  C   UNL     1       5.990  -2.440  -4.335  0.00  0.00    -0.015 C 
ATOM     25  C   UNL     1       7.051  -2.542  -5.432  0.00  0.00    -0.002 C 
ATOM     26  C   UNL     1       8.242  -1.649  -5.075  0.00  0.00    -0.000 C 
ATOM     27  C   UNL     1       7.773  -0.198  -4.951  0.00  0.00    -0.002 C 
ATOM     28  C   UNL     1       6.711  -0.097  -3.854  0.00  0.00    -0.015 C 
ENDBRANCH  19  23
ENDBRANCH   1  16
BRANCH   1  29
ATOM     29  C   UNL     1       1.279  -0.389   0.026  0.00  0.00    +0.173 A 
ATOM     30  N   UNL     1       1.979   0.718  -0.012  0.00  0.00    -0.111 NA
ATOM     31  N   UNL     1       1.160   1.710   0.054  0.00  0.00    -0.023 NA
ATOM     32  N   UNL     1      -0.045   1.264   0.134  0.00  0.00    -0.044 NA
ATOM     33  N   UNL     1      -0.014  -0.026   0.119  0.00  0.00    -0.224 N 
BRANCH  33  34
ATOM     34  C   UNL     1      -1.167  -0.925   0.191  0.00  0.00    +0.111 C 
ATOM     35  C   UNL     1      -2.098  -0.657  -0.994  0.00  0.00    +0.027 C 
ATOM     36  C   UNL     1      -3.303  -1.597  -0.919  0.00  0.00    +0.002 C 
ATOM     37  C   UNL     1      -4.059  -1.353   0.389  0.00  0.00    +0.000 C 
ATOM     38  C   UNL     1      -3.129  -1.622   1.573  0.00  0.00    +0.002 C 
ATOM     39  C   UNL     1      -1.924  -0.682   1.498  0.00  0.00    +0.027 C 
ENDBRANCH  33  34
ENDBRANCH   1  29
TORSDOF 5
