REMARK  Name = ZINC44588951
REMARK  7 active torsions:
REMARK  status: ('A' for Active; 'I' for Inactive)
REMARK    1  A    between atoms: C_1  and  C_2
REMARK    2  A    between atoms: C_3  and  S_9
REMARK    3  A    between atoms: C_4  and  C_8
REMARK    4  A    between atoms: S_9  and  N_12
REMARK    5  A    between atoms: N_12  and  C_13
REMARK    6  A    between atoms: C_18  and  O_19
REMARK    7  A    between atoms: O_19  and  C_20
REMARK                            x       y       z     vdW  Elec       q    Type
REMARK                         _______ _______ _______ _____ _____    ______ ____
ROOT
ATOM      1  C   UNL     1       2.354  -1.229  -2.888  0.00  0.00    +0.092 A 
ATOM      2  C   UNL     1       1.851  -2.508  -3.070  0.00  0.00    +0.048 A 
ATOM      3  C   UNL     1       2.683  -3.605  -2.931  0.00  0.00    +0.043 A 
ATOM      4  C   UNL     1       4.017  -3.428  -2.611  0.00  0.00    +0.024 A 
ATOM      5  C   UNL     1       4.525  -2.155  -2.428  0.00  0.00    +0.049 A 
ATOM      6  C   UNL     1       3.700  -1.052  -2.571  0.00  0.00    +0.151 A 
ATOM      7 CL   UNL     1       2.051  -5.205  -3.158  0.00  0.00    -0.083 Cl
ENDROOT
BRANCH   1   8
ATOM      8  N   UNL     1       1.515  -0.118  -3.028  0.00  0.00    -0.213 N 
ATOM      9  H   UNL     1       1.858   0.704  -3.412  0.00  0.00    +0.174 HD
BRANCH   8  10
ATOM     10  S   UNL     1      -0.065  -0.206  -2.538  0.00  0.00    +0.076 S 
ATOM     11  O   UNL     1      -0.592  -1.408  -3.082  0.00  0.00    -0.150 OA
ATOM     12  O   UNL     1      -0.642   1.065  -2.797  0.00  0.00    -0.150 OA
BRANCH  10  15
ATOM     13  C   UNL     1      -0.104   2.065  -0.165  0.00  0.00    +0.067 C 
ATOM     14  C   UNL     1      -0.074   0.588   0.129  0.00  0.00    +0.060 A 
ATOM     15  C   UNL     1      -0.056  -0.408  -0.787  0.00  0.00    +0.151 A 
ATOM     16  C   UNL     1      -0.029  -1.625  -0.099  0.00  0.00    +0.087 A 
ATOM     17  N   UNL     1      -0.032  -1.370   1.184  0.00  0.00    -0.177 NA
ATOM     18  N   UNL     1      -0.054   0.021   1.353  0.00  0.00    -0.280 N 
ATOM     19  H   UNL     1      -0.057   0.492   2.201  0.00  0.00    +0.189 HD
ATOM     20  C   UNL     1      -0.004  -2.995  -0.727  0.00  0.00    +0.069 C 
ENDBRANCH  10  15
ENDBRANCH   8  10
ENDBRANCH   1   8
BRANCH   6  21
ATOM     21  O   UNL     1       4.200   0.201  -2.397  0.00  0.00    -0.454 OA
BRANCH  21  22
ATOM     22  C   UNL     1       5.516   0.324  -2.082  0.00  0.00    +0.129 A 
ATOM     23  C   UNL     1       6.484   0.154  -3.062  0.00  0.00    +0.046 A 
ATOM     24  C   UNL     1       7.821   0.280  -2.739  0.00  0.00    +0.004 A 
ATOM     25  C   UNL     1       8.195   0.575  -1.441  0.00  0.00    +0.000 A 
ATOM     26  C   UNL     1       7.233   0.745  -0.463  0.00  0.00    +0.004 A 
ATOM     27  C   UNL     1       5.894   0.626  -0.782  0.00  0.00    +0.046 A 
ENDBRANCH  21  22
ENDBRANCH   6  21
TORSDOF 5
