REMARK  Name = ZINC05376548
REMARK  7 active torsions:
REMARK  status: ('A' for Active; 'I' for Inactive)
REMARK    1  A    between atoms: C_1  and  C_2
REMARK    2  A    between atoms: C_2  and  O_3
REMARK    3  A    between atoms: O_3  and  C_4
REMARK    4  A    between atoms: C_7  and  C_12
REMARK    5  A    between atoms: C_9  and  O_10
REMARK    6  A    between atoms: O_10  and  C_11
REMARK    7  A    between atoms: N_18  and  C_19
REMARK                            x       y       z     vdW  Elec       q    Type
REMARK                         _______ _______ _______ _____ _____    ______ ____
ROOT
ATOM      1  C   UNL     1       2.540   1.003  -0.563  0.00  0.00    +0.028 C 
ATOM      2  C   UNL     1       2.545  -0.329  -0.301  0.00  0.00    +0.078 C 
ATOM      3  C   UNL     1       3.678  -1.213   0.031  0.00  0.00    +0.256 C 
ATOM      4  O   UNL     1       4.816  -0.788   0.107  0.00  0.00    -0.269 OA
ATOM      5  N   UNL     1       3.400  -2.488   0.247  0.00  0.00    -0.260 N 
ATOM      6  C   UNL     1       2.107  -2.951   0.149  0.00  0.00    +0.166 C 
ATOM      7  N   UNL     1       1.662  -4.177   0.325  0.00  0.00    -0.225 NA
ATOM      8  S   UNL     1       1.182  -1.484  -0.274  0.00  0.00    -0.049 S 
ATOM      9  H   UNL     1       4.115  -3.103   0.472  0.00  0.00    +0.157 HD
ENDROOT
BRANCH   7  10
ATOM     10  C   UNL     1       0.332  -4.445   0.192  0.00  0.00    +0.074 A 
ATOM     11  C   UNL     1      -0.617  -3.677   0.859  0.00  0.00    +0.028 A 
ATOM     12  C   UNL     1      -1.970  -3.949   0.719  0.00  0.00    +0.003 A 
ATOM     13  C   UNL     1      -2.421  -4.972  -0.059  0.00  0.00    +0.008 A 
ATOM     14  C   UNL     1      -1.519  -5.792  -0.757  0.00  0.00    -0.016 A 
ATOM     15  C   UNL     1      -0.128  -5.549  -0.648  0.00  0.00    +0.008 A 
ATOM     16  C   UNL     1       0.774  -6.365  -1.341  0.00  0.00    +0.010 A 
ATOM     17  C   UNL     1       0.303  -7.384  -2.114  0.00  0.00    +0.001 A 
ATOM     18  C   UNL     1      -1.064  -7.626  -2.224  0.00  0.00    +0.001 A 
ATOM     19  C   UNL     1      -1.969  -6.853  -1.563  0.00  0.00    +0.008 A 
ENDBRANCH   7  10
BRANCH   1  23
ATOM     20  C   UNL     1      -0.998   2.868  -1.984  0.00  0.00    +0.162 A 
ATOM     21  C   UNL     1      -0.865   1.487  -2.056  0.00  0.00    +0.050 A 
ATOM     22  C   UNL     1       0.280   0.877  -1.591  0.00  0.00    +0.012 A 
ATOM     23  C   UNL     1       1.316   1.650  -1.055  0.00  0.00    -0.020 A 
ATOM     24  C   UNL     1       1.183   3.043  -0.988  0.00  0.00    +0.057 A 
ATOM     25  C   UNL     1       0.030   3.645  -1.451  0.00  0.00    +0.162 A 
BRANCH  25  26
ATOM     26  O   UNL     1      -0.104   4.997  -1.388  0.00  0.00    -0.491 OA
ATOM     27  C   UNL     1       0.988   5.731  -0.831  0.00  0.00    +0.277 C 
ENDBRANCH  25  26
BRANCH  20  28
ATOM     28  O   UNL     1      -2.131   3.463  -2.439  0.00  0.00    -0.489 OA
BRANCH  28  30
ATOM     29  C   UNL     1      -4.335   3.452  -3.432  0.00  0.00    +0.048 C 
ATOM     30  C   UNL     1      -3.144   2.608  -2.973  0.00  0.00    +0.226 C 
ENDBRANCH  28  30
ENDBRANCH  20  28
ENDBRANCH   1  23
TORSDOF 5
