REMARK  Name = ZINC22143318
REMARK  4 active torsions:
REMARK  status: ('A' for Active; 'I' for Inactive)
REMARK    1  A    between atoms: C_1  and  C_2
REMARK    2  A    between atoms: C_3  and  N_17
REMARK    3  A    between atoms: C_4  and  C_7
REMARK    4  A    between atoms: C_8  and  C_9
REMARK                            x       y       z     vdW  Elec       q    Type
REMARK                         _______ _______ _______ _____ _____    ______ ____
ROOT
ATOM      1  C   UNL     1      -0.013   1.076   0.008  0.00  0.00    +0.034 C 
ATOM      2  C   UNL     1       1.141   1.763   0.001  0.00  0.00    +0.013 C 
ENDROOT
BRANCH   2   3
ATOM      3  C   UNL     1       2.427   1.044  -0.015  0.00  0.00    +0.011 A 
ATOM      4  C   UNL     1       2.450  -0.354  -0.018  0.00  0.00    +0.026 A 
ATOM      5  C   UNL     1       3.658  -1.020  -0.038  0.00  0.00    +0.019 A 
ATOM      6  C   UNL     1       4.846  -0.309  -0.046  0.00  0.00    +0.018 A 
ATOM      7  C   UNL     1       4.833   1.074  -0.038  0.00  0.00    +0.040 A 
ATOM      8  C   UNL     1       3.631   1.756  -0.023  0.00  0.00    +0.131 A 
ATOM      9  F   UNL     1       3.619   3.107  -0.015  0.00  0.00    -0.205 F 
ATOM     10 BR   UNL     1       3.691  -2.911  -0.049  0.00  0.00    -0.050 Br
ENDBRANCH   2   3
BRANCH   1  14
ATOM     11  C   UNL     1      -4.937   2.260   0.039  0.00  0.00    +0.091 C 
ATOM     12  C   UNL     1      -3.430   2.289   0.032  0.00  0.00    +0.165 A 
ATOM     13  C   UNL     1      -2.604   1.220   0.021  0.00  0.00    +0.195 A 
ATOM     14  C   UNL     1      -1.299   1.796   0.018  0.00  0.00    +0.137 A 
ATOM     15  N   UNL     1      -1.476   3.097   0.032  0.00  0.00    -0.076 NA
ATOM     16  O   UNL     1      -2.652   3.381   0.034  0.00  0.00    -0.357 OA
BRANCH  13  17
ATOM     17  N   UNL     1      -2.968  -0.214   0.015  0.00  0.00    +0.062 N 
ATOM     18  O   UNL     1      -3.113  -0.811   1.067  0.00  0.00    -0.126 OA
ATOM     19  O   UNL     1      -3.123  -0.799  -1.043  0.00  0.00    -0.126 OA
ENDBRANCH  13  17
ENDBRANCH   1  14
TORSDOF 3
