REMARK  Name = ZINC42014973
REMARK  4 active torsions:
REMARK  status: ('A' for Active; 'I' for Inactive)
REMARK    1  A    between atoms: C_4  and  N_8
REMARK    2  A    between atoms: C_9  and  C_13
REMARK    3  A    between atoms: C_15  and  N_20
REMARK    4  A    between atoms: C_17  and  N_19
REMARK                            x       y       z     vdW  Elec       q    Type
REMARK                         _______ _______ _______ _____ _____    ______ ____
ROOT
ATOM      1  N   UNL     1       3.626  -0.675  -0.214  0.00  0.00    -0.191 N 
ATOM      2  C   UNL     1       3.824  -2.000   0.045  0.00  0.00    +0.187 A 
ATOM      3  N   UNL     1       5.123  -2.176   0.167  0.00  0.00    -0.108 NA
ATOM      4  N   UNL     1       5.746  -1.065   0.004  0.00  0.00    -0.022 NA
ATOM      5  N   UNL     1       4.913  -0.111  -0.237  0.00  0.00    -0.039 NA
ENDROOT
BRANCH   1   9
ATOM      6  C   UNL     1      -0.009   1.275  -0.825  0.00  0.00    +0.021 A 
ATOM      7  C   UNL     1       0.842   1.701   0.178  0.00  0.00    +0.023 A 
ATOM      8  C   UNL     1       2.048   1.056   0.383  0.00  0.00    +0.067 A 
ATOM      9  C   UNL     1       2.404  -0.020  -0.420  0.00  0.00    +0.089 A 
ATOM     10  C   UNL     1       1.548  -0.446  -1.426  0.00  0.00    +0.049 A 
ATOM     11  C   UNL     1       0.343   0.203  -1.627  0.00  0.00    +0.043 A 
ATOM     12 CL   UNL     1      -0.729  -0.328  -2.884  0.00  0.00    -0.083 Cl
ATOM     13 CL   UNL     1       3.116   1.592   1.643  0.00  0.00    -0.081 Cl
ENDBRANCH   1   9
BRANCH   2  14
ATOM     14  C   UNL     1       2.779  -3.040   0.166  0.00  0.00    +0.025 A 
ATOM     15  C   UNL     1       1.456  -2.675   0.413  0.00  0.00    +0.034 A 
ATOM     16  C   UNL     1       0.478  -3.653   0.526  0.00  0.00    +0.027 A 
ATOM     17  C   UNL     1       0.815  -4.993   0.393  0.00  0.00    +0.045 A 
ATOM     18  C   UNL     1       2.132  -5.360   0.147  0.00  0.00    +0.027 A 
ATOM     19  C   UNL     1       3.113  -4.386   0.028  0.00  0.00    +0.034 A 
BRANCH  18  20
ATOM     20  N   UNL     1       2.467  -6.709   0.015  0.00  0.00    -0.358 N 
ATOM     21  H   UNL     1       1.781  -7.390   0.095  0.00  0.00    +0.142 HD
ATOM     22  H   UNL     1       3.387  -6.966  -0.156  0.00  0.00    +0.142 HD
ENDBRANCH  18  20
BRANCH  16  23
ATOM     23  N   UNL     1      -0.848  -3.288   0.773  0.00  0.00    -0.358 N 
ATOM     24  H   UNL     1      -1.097  -2.351   0.794  0.00  0.00    +0.142 HD
ATOM     25  H   UNL     1      -1.519  -3.972   0.925  0.00  0.00    +0.142 HD
ENDBRANCH  16  23
ENDBRANCH   2  14
TORSDOF 4
