REMARK  Name = ZINC37174337
REMARK  5 active torsions:
REMARK  status: ('A' for Active; 'I' for Inactive)
REMARK    1  A    between atoms: C_1  and  N_2
REMARK    2  A    between atoms: N_2  and  C_3
REMARK    3  A    between atoms: N_2  and  S_9
REMARK    4  A    between atoms: S_9  and  C_12
REMARK    5  A    between atoms: C_16  and  N_18
REMARK                            x       y       z     vdW  Elec       q    Type
REMARK                         _______ _______ _______ _____ _____    ______ ____
ROOT
ATOM      1  S   UNL     1      -0.000  -0.824  -1.437  0.00  0.00    +0.061 S 
ATOM      2  O   UNL     1      -0.531  -2.115  -1.167  0.00  0.00    -0.153 OA
ATOM      3  O   UNL     1      -0.572   0.049  -2.401  0.00  0.00    -0.153 OA
ENDROOT
BRANCH   1   4
ATOM      4  C   UNL     1       1.682  -1.059  -1.905  0.00  0.00    +0.107 A 
ATOM      5  C   UNL     1       2.323  -0.108  -2.677  0.00  0.00    +0.030 A 
ATOM      6  C   UNL     1       3.643  -0.288  -3.048  0.00  0.00    +0.024 A 
ATOM      7  C   UNL     1       4.326  -1.421  -2.647  0.00  0.00    +0.062 A 
ATOM      8  C   UNL     1       3.684  -2.379  -1.870  0.00  0.00    +0.045 A 
ATOM      9  C   UNL     1       2.360  -2.191  -1.496  0.00  0.00    +0.052 A 
ATOM     10 CL   UNL     1       5.982  -1.648  -3.113  0.00  0.00    -0.082 Cl
BRANCH   8  11
ATOM     11  N   UNL     1       4.371  -3.526  -1.463  0.00  0.00    -0.357 N 
ATOM     12  H   UNL     1       5.297  -3.654  -1.722  0.00  0.00    +0.142 HD
ATOM     13  H   UNL     1       3.922  -4.193  -0.921  0.00  0.00    +0.142 HD
ENDBRANCH   8  11
ENDBRANCH   1   4
BRANCH   1  15
ATOM     14  C   UNL     1      -0.018   1.461   0.010  0.00  0.00    +0.132 C 
ATOM     15  N   UNL     1       0.002  -0.004   0.002  0.00  0.00    -0.176 NA
BRANCH  15  16
ATOM     16  C   UNL     1       0.024  -0.743   1.267  0.00  0.00    +0.090 C 
ATOM     17  C   UNL     1       1.312  -0.398   2.013  0.00  0.00    +0.032 C 
ATOM     18  C   UNL     1       1.084   0.828   2.941  0.00  0.00    +0.071 C 
ATOM     19  S   UNL     1      -0.608   0.432   3.565  0.00  0.00    -0.159 S 
ATOM     20  C   UNL     1      -1.252  -0.403   2.060  0.00  0.00    +0.089 C 
ENDBRANCH  15  16
ENDBRANCH   1  15
TORSDOF 4
