REMARK  Name = ZINC66975932
REMARK  8 active torsions:
REMARK  status: ('A' for Active; 'I' for Inactive)
REMARK    1  A    between atoms: C_1  and  C_2
REMARK    2  A    between atoms: C_2  and  N_3
REMARK    3  A    between atoms: N_3  and  C_4
REMARK    4  A    between atoms: N_3  and  S_24
REMARK    5  A    between atoms: N_12  and  C_13
REMARK    6  A    between atoms: C_18  and  C_23
REMARK    7  A    between atoms: C_20  and  C_22
REMARK    8  A    between atoms: S_24  and  C_27
REMARK                            x       y       z     vdW  Elec       q    Type
REMARK                         _______ _______ _______ _____ _____    ______ ____
ROOT
ATOM      1  C   UNL     1      -2.010  -0.659  -1.426  0.00  0.00    +0.082 C 
ATOM      2  C   UNL     1      -1.273  -1.756  -2.198  0.00  0.00    +0.039 C 
ATOM      3  C   UNL     1      -1.938  -1.948  -3.565  0.00  0.00    +0.111 C 
ATOM      4  N   UNL     1      -1.983  -0.652  -4.255  0.00  0.00    -0.286 N 
ATOM      5  C   UNL     1      -2.589   0.495  -3.564  0.00  0.00    +0.111 C 
ATOM      6  C   UNL     1      -1.918   0.659  -2.197  0.00  0.00    +0.039 C 
ATOM      7  C   UNL     1      -1.477  -0.517  -5.497  0.00  0.00    +0.302 C 
ATOM      8  O   UNL     1      -1.599   0.537  -6.091  0.00  0.00    -0.253 OA
ATOM      9  N   UNL     1      -0.836  -1.549  -6.079  0.00  0.00    -0.296 N 
ATOM     10  H   UNL     1      -0.797  -2.410  -5.633  0.00  0.00    +0.151 HD
ENDROOT
BRANCH   9  11
ATOM     11  C   UNL     1      -0.197  -1.371  -7.385  0.00  0.00    +0.078 C 
ATOM     12  C   UNL     1      -1.232  -1.581  -8.492  0.00  0.00    +0.022 C 
ATOM     13  C   UNL     1      -0.564  -1.395  -9.856  0.00  0.00    +0.002 C 
ATOM     14  C   UNL     1       0.565  -2.415 -10.015  0.00  0.00    +0.003 C 
ATOM     15  C   UNL     1       1.600  -2.206  -8.908  0.00  0.00    -0.009 C 
ATOM     16  C   UNL     1       0.932  -2.392  -7.543  0.00  0.00    +0.009 C 
ATOM     17  C   UNL     1       0.359  -3.807  -7.444  0.00  0.00    +0.009 C 
ATOM     18  C   UNL     1       2.729  -3.226  -9.066  0.00  0.00    +0.008 C 
ENDBRANCH   9  11
BRANCH   1  19
ATOM     19  N   UNL     1      -1.398  -0.496  -0.105  0.00  0.00    -0.179 NA
BRANCH  19  20
ATOM     20  S   UNL     1      -2.277  -0.822   1.260  0.00  0.00    +0.029 S 
ATOM     21  O   UNL     1      -3.256  -1.764   0.846  0.00  0.00    -0.158 OA
ATOM     22  O   UNL     1      -1.308  -1.167   2.241  0.00  0.00    -0.158 OA
ATOM     23  C   UNL     1      -3.068   0.753   1.691  0.00  0.00    +0.215 C 
ENDBRANCH  19  20
BRANCH  19  25
ATOM     24  C   UNL     1       0.927  -1.253  -0.065  0.00  0.00    +0.022 C 
ATOM     25  C   UNL     1      -0.009  -0.045   0.008  0.00  0.00    +0.106 C 
ENDBRANCH  19  25
ENDBRANCH   1  19
TORSDOF 4
