REMARK  Name = ZINC19852958
REMARK  8 active torsions:
REMARK  status: ('A' for Active; 'I' for Inactive)
REMARK    1  A    between atoms: C_1  and  C_2
REMARK    2  A    between atoms: C_2  and  C_3
REMARK    3  A    between atoms: C_2  and  N_4
REMARK    4  A    between atoms: C_5  and  C_7
REMARK    5  A    between atoms: C_10  and  N_22
REMARK    6  A    between atoms: N_13  and  C_14
REMARK    7  A    between atoms: C_14  and  C_15
REMARK    8  A    between atoms: N_22  and  C_23
REMARK                            x       y       z     vdW  Elec       q    Type
REMARK                         _______ _______ _______ _____ _____    ______ ____
ROOT
ATOM      1  C   UNL     1      -2.041   3.724  -2.383  0.00  0.00    +0.142 C 
ATOM      2  C   UNL     1      -1.060   3.857  -3.563  0.00  0.00    +0.014 C 
ATOM      3  C   UNL     1      -1.117   5.348  -3.970  0.00  0.00    -0.055 C 
ATOM      4  C   UNL     1      -2.487   5.807  -3.411  0.00  0.00    +0.070 C 
ATOM      5  N   UNL     1      -2.594   5.072  -2.125  0.00  0.00    -0.289 NA
ENDROOT
BRANCH   1   7
ATOM      6  N   UNL     1      -0.727   2.011  -1.176  0.00  0.00    -0.312 N 
ATOM      7  C   UNL     1      -1.312   3.225  -1.163  0.00  0.00    +0.230 C 
ATOM      8  O   UNL     1      -1.252   3.916  -0.168  0.00  0.00    -0.274 OA
ATOM      9  H   UNL     1      -0.782   1.385  -2.079  0.00  0.00    +0.149 HD
BRANCH   6  11
ATOM     10  C   UNL     1       0.002  -0.004   0.002  0.00  0.00    +0.027 C 
ATOM     11  C   UNL     1      -0.019   1.526   0.010  0.00  0.00    +0.067 C 
ATOM     12  C   UNL     1       1.417   2.055  -0.000  0.00  0.00    +0.027 C 
ENDBRANCH   6  11
ENDBRANCH   1   7
BRANCH   3  13
ATOM     13  N   UNL     1      -1.078   5.489  -5.431  0.00  0.00    +0.384 N 
ATOM     14  H   UNL     1      -0.362   4.767  -5.851  0.00  0.00    -0.085 HD
ATOM     15  H   UNL     1      -2.079   5.297  -5.845  0.00  0.00    -0.085 HD
BRANCH  13  16
ATOM     16  C   UNL     1      -0.661   6.844  -5.818  0.00  0.00    -0.065 C 
ATOM     17  C   UNL     1      -1.879   7.769  -5.827  0.00  0.00    -0.024 C 
ATOM     18  C   UNL     1      -1.444   9.180  -6.230  0.00  0.00    +0.005 C 
ATOM     19  C   UNL     1      -0.822   9.143  -7.627  0.00  0.00    -0.010 C 
ATOM     20  C   UNL     1      -1.853   8.620  -8.630  0.00  0.00    +0.007 C 
ATOM     21  C   UNL     1      -2.287   7.210  -8.227  0.00  0.00    -0.010 C 
ATOM     22  C   UNL     1      -2.909   7.247  -6.830  0.00  0.00    +0.005 C 
ATOM     23  C   UNL     1      -1.069   6.284  -8.219  0.00  0.00    +0.005 C 
ATOM     24  C   UNL     1      -0.038   6.806  -7.215  0.00  0.00    -0.024 C 
ATOM     25  C   UNL     1       0.396   8.217  -7.618  0.00  0.00    +0.005 C 
ENDBRANCH  13  16
ENDBRANCH   3  13
BRANCH   5  26
ATOM     26  C   UNL     1      -3.991   4.991  -1.678  0.00  0.00    +0.120 C 
BRANCH  26  27
ATOM     27  C   UNL     1      -4.593   6.372  -1.661  0.00  0.00    -0.033 A 
ATOM     28  C   UNL     1      -4.520   7.144  -0.516  0.00  0.00    +0.006 A 
ATOM     29  C   UNL     1      -5.067   8.413  -0.501  0.00  0.00    +0.020 A 
ATOM     30  C   UNL     1      -5.698   8.907  -1.629  0.00  0.00    +0.041 A 
ATOM     31  C   UNL     1      -5.777   8.132  -2.773  0.00  0.00    +0.020 A 
ATOM     32  C   UNL     1      -5.224   6.865  -2.788  0.00  0.00    +0.006 A 
ATOM     33 CL   UNL     1      -6.392  10.498  -1.609  0.00  0.00    -0.084 Cl
ENDBRANCH  26  27
ENDBRANCH   5  26
TORSDOF 6
