REMARK  Name = ZINC40759304
REMARK  6 active torsions:
REMARK  status: ('A' for Active; 'I' for Inactive)
REMARK    1  A    between atoms: C_5  and  N_7
REMARK    2  A    between atoms: C_9  and  N_26
REMARK    3  A    between atoms: C_10  and  N_14
REMARK    4  A    between atoms: N_14  and  C_15
REMARK    5  A    between atoms: C_18  and  O_21
REMARK    6  A    between atoms: O_21  and  C_22
REMARK                            x       y       z     vdW  Elec       q    Type
REMARK                         _______ _______ _______ _____ _____    ______ ____
ROOT
ATOM      1  N   UNL     1       1.220  -2.048   0.338  0.00  0.00    -0.296 N 
ATOM      2  C   UNL     1       0.041  -2.777   0.447  0.00  0.00    +0.149 A 
ATOM      3  C   UNL     1       0.059  -4.171   0.367  0.00  0.00    +0.106 A 
ATOM      4  C   UNL     1      -1.154  -4.853   0.483  0.00  0.00    +0.149 A 
ATOM      5  N   UNL     1      -2.272  -4.154   0.664  0.00  0.00    -0.219 NA
ATOM      6  C   UNL     1      -2.245  -2.839   0.734  0.00  0.00    +0.225 A 
ATOM      7  N   UNL     1      -1.121  -2.156   0.634  0.00  0.00    -0.219 NA
ATOM      8  H   UNL     1       2.051  -2.500   0.122  0.00  0.00    +0.154 HD
ENDROOT
BRANCH   1  13
ATOM      9  C   UNL     1       0.167   1.293   1.455  0.00  0.00    +0.002 A 
ATOM     10  C   UNL     1       1.184   2.075   0.939  0.00  0.00    +0.003 A 
ATOM     11  C   UNL     1       2.214   1.493   0.224  0.00  0.00    +0.040 A 
ATOM     12  C   UNL     1       2.230   0.125   0.022  0.00  0.00    +0.144 A 
ATOM     13  C   UNL     1       1.208  -0.664   0.540  0.00  0.00    +0.068 A 
ATOM     14  C   UNL     1       0.176  -0.074   1.258  0.00  0.00    +0.026 A 
ATOM     15  F   UNL     1       3.236  -0.444  -0.677  0.00  0.00    -0.204 F 
ENDBRANCH   1  13
BRANCH   3  16
ATOM     16  N   UNL     1       1.263  -4.867   0.174  0.00  0.00    -0.353 N 
ATOM     17  H   UNL     1       2.097  -4.379   0.095  0.00  0.00    +0.143 HD
ATOM     18  H   UNL     1       1.260  -5.835   0.121  0.00  0.00    +0.143 HD
ENDBRANCH   3  16
BRANCH   4  19
ATOM     19  N   UNL     1      -1.192  -6.241   0.410  0.00  0.00    -0.298 N 
ATOM     20  H   UNL     1      -0.367  -6.747   0.355  0.00  0.00    +0.154 HD
BRANCH  19  21
ATOM     21  C   UNL     1      -2.423  -6.908   0.416  0.00  0.00    +0.033 A 
ATOM     22  C   UNL     1      -2.536  -8.152   1.023  0.00  0.00    +0.027 A 
ATOM     23  C   UNL     1      -3.751  -8.809   1.028  0.00  0.00    +0.048 A 
ATOM     24  C   UNL     1      -4.857  -8.227   0.428  0.00  0.00    +0.130 A 
ATOM     25  C   UNL     1      -4.745  -6.984  -0.178  0.00  0.00    +0.048 A 
ATOM     26  C   UNL     1      -3.533  -6.323  -0.180  0.00  0.00    +0.027 A 
BRANCH  24  27
ATOM     27  O   UNL     1      -6.053  -8.875   0.433  0.00  0.00    -0.406 OA
BRANCH  27  28
ATOM     28  C   UNL     1      -7.151  -8.217  -0.203  0.00  0.00    +0.575 C 
ATOM     29  F   UNL     1      -6.846  -8.001  -1.552  0.00  0.00    -0.133 F 
ATOM     30  F   UNL     1      -8.294  -9.018  -0.106  0.00  0.00    -0.133 F 
ATOM     31  F   UNL     1      -7.386  -6.989   0.424  0.00  0.00    -0.133 F 
ENDBRANCH  27  28
ENDBRANCH  24  27
ENDBRANCH  19  21
ENDBRANCH   4  19
TORSDOF 6
