REMARK  Name = ZINC36748192
REMARK  6 active torsions:
REMARK  status: ('A' for Active; 'I' for Inactive)
REMARK    1  A    between atoms: C_1  and  N_2
REMARK    2  A    between atoms: N_2  and  C_3
REMARK    3  A    between atoms: C_13  and  C_15
REMARK    4  A    between atoms: C_16  and  C_17
REMARK    5  A    between atoms: C_22  and  O_23
REMARK    6  A    between atoms: O_23  and  C_24
REMARK                            x       y       z     vdW  Elec       q    Type
REMARK                         _______ _______ _______ _____ _____    ______ ____
ROOT
ATOM      1  C   UNL     1      -0.362   1.415   0.019  0.00  0.00    +0.132 C 
ATOM      2  N   UNL     1       0.002  -0.004   0.002  0.00  0.00    -0.297 N 
ATOM      3  C   UNL     1       0.215  -0.631  -1.172  0.00  0.00    +0.239 C 
ATOM      4  O   UNL     1       0.518  -1.810  -1.186  0.00  0.00    -0.271 OA
ENDROOT
BRANCH   2   5
ATOM      5  C   UNL     1       0.135  -0.742   1.261  0.00  0.00    +0.082 C 
ATOM      6  C   UNL     1       1.512  -1.406   1.320  0.00  0.00    +0.010 C 
ATOM      7  C   UNL     1       2.599  -0.333   1.241  0.00  0.00    +0.009 C 
ATOM      8  C   UNL     1       2.448   0.634   2.417  0.00  0.00    -0.010 C 
ATOM      9  C   UNL     1       2.587  -0.136   3.732  0.00  0.00    +0.007 C 
ATOM     10  C   UNL     1       1.499  -1.209   3.811  0.00  0.00    -0.010 C 
ATOM     11  C   UNL     1       1.650  -2.176   2.635  0.00  0.00    +0.009 C 
ATOM     12  C   UNL     1       0.122  -0.545   3.752  0.00  0.00    +0.009 C 
ATOM     13  C   UNL     1      -0.017   0.225   2.437  0.00  0.00    +0.010 C 
ATOM     14  C   UNL     1       1.071   1.298   2.358  0.00  0.00    +0.009 C 
ENDBRANCH   2   5
BRANCH   3  15
ATOM     15  C   UNL     1       0.083   0.106  -2.429  0.00  0.00    +0.068 C 
ATOM     16  C   UNL     1       0.297  -0.522  -3.604  0.00  0.00    +0.016 C 
BRANCH  16  17
ATOM     17  C   UNL     1       0.164   0.218  -4.867  0.00  0.00    +0.017 A 
ATOM     18  C   UNL     1      -0.178   1.575  -4.855  0.00  0.00    +0.011 A 
ATOM     19  C   UNL     1      -0.301   2.262  -6.043  0.00  0.00    +0.001 A 
ATOM     20  C   UNL     1      -0.088   1.616  -7.250  0.00  0.00    +0.004 A 
ATOM     21  C   UNL     1       0.250   0.277  -7.277  0.00  0.00    +0.046 A 
ATOM     22  C   UNL     1       0.385  -0.430  -6.093  0.00  0.00    +0.134 A 
BRANCH  22  23
ATOM     23  O   UNL     1       0.723  -1.744  -6.117  0.00  0.00    -0.434 OA
BRANCH  23  24
ATOM     24  C   UNL     1       0.932  -2.336  -7.401  0.00  0.00    +0.541 C 
ATOM     25  F   UNL     1      -0.240  -2.235  -8.158  0.00  0.00    -0.166 F 
ATOM     26  F   UNL     1       1.971  -1.668  -8.059  0.00  0.00    -0.166 F 
ENDBRANCH  23  24
ENDBRANCH  22  23
ENDBRANCH  16  17
ENDBRANCH   3  15
TORSDOF 5
