REMARK  Name = ZINC06896712
REMARK  5 active torsions:
REMARK  status: ('A' for Active; 'I' for Inactive)
REMARK    1  A    between atoms: C_4  and  N_7
REMARK    2  A    between atoms: N_7  and  C_8
REMARK    3  A    between atoms: C_20  and  N_22
REMARK    4  A    between atoms: N_22  and  S_23
REMARK    5  A    between atoms: S_23  and  C_26
REMARK                            x       y       z     vdW  Elec       q    Type
REMARK                         _______ _______ _______ _____ _____    ______ ____
ROOT
ATOM      1  C   UNL     1      -3.714   3.075   0.054  0.00  0.00    +0.124 C 
ATOM      2  C   UNL     1      -4.105   2.725   1.469  0.00  0.00    -0.017 A 
ATOM      3  C   UNL     1      -3.537   1.991   2.465  0.00  0.00    +0.006 A 
ATOM      4  C   UNL     1      -4.178   1.859   3.699  0.00  0.00    +0.001 A 
ATOM      5  C   UNL     1      -5.382   2.447   3.962  0.00  0.00    +0.008 A 
ATOM      6  C   UNL     1      -5.996   3.212   2.958  0.00  0.00    -0.017 A 
ATOM      7  C   UNL     1      -5.331   3.330   1.724  0.00  0.00    -0.008 A 
ATOM      8  C   UNL     1      -5.847   4.063   0.659  0.00  0.00    -0.019 A 
ATOM      9  C   UNL     1      -7.046   4.685   0.834  0.00  0.00    +0.006 A 
ATOM     10  C   UNL     1      -7.724   4.581   2.050  0.00  0.00    +0.001 A 
ATOM     11  C   UNL     1      -7.230   3.867   3.103  0.00  0.00    +0.008 A 
ATOM     12  C   UNL     1      -4.863   3.958  -0.480  0.00  0.00    +0.131 C 
ENDROOT
BRANCH   1  13
ATOM     13  N   UNL     1      -2.454   3.822   0.046  0.00  0.00    -0.335 N 
ATOM     14  H   UNL     1      -2.465   4.792   0.052  0.00  0.00    +0.147 HD
BRANCH  13  18
ATOM     15  C   UNL     1       1.176   1.783   0.000  0.00  0.00    +0.000 A 
ATOM     16  C   UNL     1      -0.013   1.076   0.008  0.00  0.00    +0.002 A 
ATOM     17  C   UNL     1      -1.218   1.749   0.017  0.00  0.00    +0.023 A 
ATOM     18  C   UNL     1      -1.236   3.138   0.031  0.00  0.00    +0.028 A 
ATOM     19  C   UNL     1      -0.040   3.845   0.023  0.00  0.00    +0.023 A 
ATOM     20  C   UNL     1       1.162   3.166   0.008  0.00  0.00    +0.002 A 
ENDBRANCH  13  18
ENDBRANCH   1  13
BRANCH  12  21
ATOM     21  N   UNL     1      -5.494   3.323  -1.639  0.00  0.00    -0.180 NA
ATOM     22  H   UNL     1      -5.576   2.357  -1.679  0.00  0.00    +0.149 HD
BRANCH  21  23
ATOM     23  S   UNL     1      -6.067   4.253  -2.884  0.00  0.00    +0.059 S 
ATOM     24  O   UNL     1      -6.589   3.357  -3.855  0.00  0.00    -0.153 OA
ATOM     25  O   UNL     1      -6.854   5.279  -2.294  0.00  0.00    -0.153 OA
BRANCH  23  26
ATOM     26  C   UNL     1      -4.678   5.046  -3.624  0.00  0.00    +0.105 A 
ATOM     27  C   UNL     1      -4.265   6.283  -3.168  0.00  0.00    +0.028 A 
ATOM     28  C   UNL     1      -3.172   6.903  -3.746  0.00  0.00    +0.002 A 
ATOM     29  C   UNL     1      -2.500   6.289  -4.786  0.00  0.00    +0.000 A 
ATOM     30  C   UNL     1      -2.917   5.054  -5.246  0.00  0.00    +0.002 A 
ATOM     31  C   UNL     1      -4.006   4.432  -4.665  0.00  0.00    +0.028 A 
ENDBRANCH  23  26
ENDBRANCH  21  23
ENDBRANCH  12  21
TORSDOF 5
