REMARK  Name = ZINC09905848
REMARK  5 active torsions:
REMARK  status: ('A' for Active; 'I' for Inactive)
REMARK    1  A    between atoms: C_3  and  N_26
REMARK    2  A    between atoms: C_4  and  N_10
REMARK    3  A    between atoms: C_6  and  C_7
REMARK    4  A    between atoms: C_11  and  C_13
REMARK    5  A    between atoms: C_14  and  C_15
REMARK                            x       y       z     vdW  Elec       q    Type
REMARK                         _______ _______ _______ _____ _____    ______ ____
ROOT
ATOM      1  N   UNL     1      -2.633   3.886   0.025  0.00  0.00    -0.280 N 
ATOM      2  C   UNL     1      -2.839   5.026   0.714  0.00  0.00    +0.241 C 
ATOM      3  O   UNL     1      -1.911   5.564   1.291  0.00  0.00    -0.270 OA
ATOM      4  H   UNL     1      -3.356   3.492  -0.488  0.00  0.00    +0.155 HD
ENDROOT
BRANCH   1   8
ATOM      5  C   UNL     1       1.115   2.029   0.094  0.00  0.00    +0.015 A 
ATOM      6  C   UNL     1      -0.030   1.264   0.039  0.00  0.00    +0.026 A 
ATOM      7  C   UNL     1      -1.277   1.876   0.010  0.00  0.00    +0.051 A 
ATOM      8  C   UNL     1      -1.375   3.271   0.048  0.00  0.00    +0.056 A 
ATOM      9  C   UNL     1      -0.229   4.041   0.103  0.00  0.00    +0.038 A 
ATOM     10  C   UNL     1       1.025   3.423   0.127  0.00  0.00    +0.038 A 
BRANCH  10  11
ATOM     11  C   UNL     1       2.251   4.241   0.186  0.00  0.00    +0.242 C 
ATOM     12  O   UNL     1       2.171   5.454   0.214  0.00  0.00    -0.270 OA
ATOM     13  N   UNL     1       3.459   3.644   0.209  0.00  0.00    -0.325 N 
ATOM     14  H   UNL     1       3.522   2.677   0.186  0.00  0.00    +0.145 HD
ATOM     15  H   UNL     1       4.265   4.183   0.248  0.00  0.00    +0.145 HD
ENDBRANCH  10  11
BRANCH   7  16
ATOM     16  N   UNL     1      -2.431   1.100  -0.051  0.00  0.00    -0.328 N 
ATOM     17  C   UNL     1      -2.111  -0.343   0.100  0.00  0.00    +0.105 C 
ATOM     18  C   UNL     1      -3.464  -0.963   0.532  0.00  0.00    +0.020 C 
ATOM     19  C   UNL     1      -4.060   0.120   1.460  0.00  0.00    +0.020 C 
ATOM     20  C   UNL     1      -3.350   1.427   1.060  0.00  0.00    +0.105 C 
ENDBRANCH   7  16
ENDBRANCH   1   8
BRANCH   2  21
ATOM     21  C   UNL     1      -4.133   5.596   0.768  0.00  0.00    +0.068 C 
ATOM     22  C   UNL     1      -4.340   6.745   1.463  0.00  0.00    +0.012 C 
BRANCH  22  23
ATOM     23  C   UNL     1      -5.629   7.314   1.516  0.00  0.00    -0.010 C 
ATOM     24  C   UNL     1      -5.842   8.460   2.216  0.00  0.00    +0.018 C 
ATOM     25  C   UNL     1      -7.209   9.000   2.250  0.00  0.00    +0.018 A 
ATOM     26  C   UNL     1      -7.464  10.315   2.641  0.00  0.00    +0.031 A 
ATOM     27  C   UNL     1      -8.764  10.778   2.660  0.00  0.00    +0.042 A 
ATOM     28  C   UNL     1      -9.810   9.944   2.294  0.00  0.00    +0.023 A 
ATOM     29  C   UNL     1      -9.568   8.639   1.906  0.00  0.00    +0.048 A 
ATOM     30  C   UNL     1      -8.271   8.157   1.881  0.00  0.00    +0.128 A 
ATOM     31  O   UNL     1      -8.001   6.882   1.506  0.00  0.00    -0.487 OA
ATOM     32  C   UNL     1      -6.779   6.650   0.804  0.00  0.00    +0.264 C 
ATOM     33 CL   UNL     1      -9.092  12.412   3.145  0.00  0.00    -0.084 Cl
ENDBRANCH  22  23
ENDBRANCH   2  21
TORSDOF 5
