REMARK  Name = ZINC00626619
REMARK  3 active torsions:
REMARK  status: ('A' for Active; 'I' for Inactive)
REMARK    1  A    between atoms: C_1  and  C_2
REMARK    2  A    between atoms: N_10  and  C_19
REMARK    3  A    between atoms: C_11  and  C_13
REMARK                            x       y       z     vdW  Elec       q    Type
REMARK                         _______ _______ _______ _____ _____    ______ ____
ROOT
ATOM      1  C   UNL     1      -0.018   1.503   0.010  0.00  0.00    +0.068 C 
ATOM      2  C   UNL     1       0.002  -0.004   0.002  0.00  0.00    +0.066 A 
ATOM      3  C   UNL     1       0.008  -0.817  -1.124  0.00  0.00    +0.030 A 
ATOM      4  C   UNL     1       0.028  -2.118  -0.651  0.00  0.00    +0.126 A 
ATOM      5  N   UNL     1       0.033  -2.021   0.711  0.00  0.00    -0.272 N 
ATOM      6  H   UNL     1       0.046  -2.773   1.324  0.00  0.00    +0.189 HD
ATOM      7  N   UNL     1       0.023  -0.783   1.056  0.00  0.00    -0.178 NA
ATOM      8  C   UNL     1       0.036  -3.031  -1.798  0.00  0.00    +0.270 C 
ATOM      9  O   UNL     1       0.052  -4.245  -1.718  0.00  0.00    -0.268 OA
ATOM     10  N   UNL     1       0.021  -2.337  -2.950  0.00  0.00    -0.255 N 
ATOM     11  C   UNL     1       0.003  -0.905  -2.626  0.00  0.00    +0.146 C 
ENDROOT
BRANCH  10  12
ATOM     12  C   UNL     1       0.024  -2.885  -4.237  0.00  0.00    +0.038 A 
ATOM     13  C   UNL     1       0.014  -2.053  -5.348  0.00  0.00    +0.024 A 
ATOM     14  C   UNL     1       0.017  -2.597  -6.617  0.00  0.00    +0.017 A 
ATOM     15  C   UNL     1       0.029  -3.971  -6.782  0.00  0.00    +0.018 A 
ATOM     16  C   UNL     1       0.038  -4.803  -5.677  0.00  0.00    +0.017 A 
ATOM     17  C   UNL     1       0.042  -4.264  -4.405  0.00  0.00    +0.024 A 
ATOM     18 BR   UNL     1       0.032  -4.712  -8.522  0.00  0.00    -0.050 Br
ENDBRANCH  10  12
BRANCH  11  19
ATOM     19  C   UNL     1       1.227  -0.230  -3.189  0.00  0.00    -0.022 A 
ATOM     20  C   UNL     1       2.438  -0.895  -3.203  0.00  0.00    +0.006 A 
ATOM     21  C   UNL     1       3.561  -0.277  -3.720  0.00  0.00    +0.000 A 
ATOM     22  C   UNL     1       3.472   1.008  -4.223  0.00  0.00    +0.000 A 
ATOM     23  C   UNL     1       2.260   1.673  -4.210  0.00  0.00    +0.000 A 
ATOM     24  C   UNL     1       1.137   1.052  -3.697  0.00  0.00    +0.006 A 
ENDBRANCH  11  19
TORSDOF 2
