REMARK  Name = ZINC19788086
REMARK  13 active torsions:
REMARK  status: ('A' for Active; 'I' for Inactive)
REMARK    1  A    between atoms: C_1  and  C_2
REMARK    2  A    between atoms: C_5  and  C_35
REMARK    3  A    between atoms: C_6  and  C_8
REMARK    4  A    between atoms: C_9  and  C_14
REMARK    5  A    between atoms: C_14  and  N_15
REMARK    6  A    between atoms: N_18  and  C_25
REMARK    7  A    between atoms: C_19  and  C_22
REMARK    8  A    between atoms: C_22  and  C_23
REMARK    9  A    between atoms: C_23  and  O_24
REMARK   10  A    between atoms: C_25  and  C_26
REMARK   11  A    between atoms: C_29  and  O_33
REMARK   12  A    between atoms: C_30  and  C_32
REMARK   13  A    between atoms: O_33  and  C_34
REMARK                            x       y       z     vdW  Elec       q    Type
REMARK                         _______ _______ _______ _____ _____    ______ ____
ROOT
ATOM      1  N   UNL     1       3.473   5.636  -0.474  0.00  0.00    +0.384 N 
ATOM      2  C   UNL     1       4.176   5.104   0.702  0.00  0.00    -0.063 C 
ATOM      3  C   UNL     1       4.109   3.575   0.685  0.00  0.00    +0.066 C 
ATOM      4  N   UNL     1       2.702   3.150   0.679  0.00  0.00    -0.299 NA
ATOM      5  C   UNL     1       1.999   3.682  -0.497  0.00  0.00    +0.043 C 
ATOM      6  C   UNL     1       2.067   5.210  -0.480  0.00  0.00    -0.059 C 
ATOM      7  H   UNL     1       3.957   5.226  -1.373  0.00  0.00    -0.081 HD
ENDROOT
BRANCH   1   8
ATOM      8  C   UNL     1       3.581   7.100  -0.534  0.00  0.00    -0.039 C 
BRANCH   8  10
ATOM      9  C   UNL     1       2.764   9.078   0.941  0.00  0.00    +0.094 A 
ATOM     10  C   UNL     1       2.907   7.703   0.672  0.00  0.00    -0.019 A 
ATOM     11  C   UNL     1       2.328   7.021   1.684  0.00  0.00    +0.107 A 
ATOM     12  N   UNL     1       1.843   7.918   2.568  0.00  0.00    -0.284 N 
ATOM     13  H   UNL     1       1.333   7.573   3.479  0.00  0.00    +0.188 HD
ATOM     14  N   UNL     1       2.122   9.203   2.083  0.00  0.00    -0.174 NA
BRANCH   9  20
ATOM     15  C   UNL     1       5.325  10.667  -3.040  0.00  0.00    +0.044 C 
ATOM     16  C   UNL     1       4.481  10.958  -1.826  0.00  0.00    -0.050 A 
ATOM     17  C   UNL     1       4.157  12.264  -1.507  0.00  0.00    +0.003 A 
ATOM     18  C   UNL     1       3.382  12.538  -0.395  0.00  0.00    +0.004 A 
ATOM     19  C   UNL     1       2.922  11.507   0.400  0.00  0.00    -0.041 A 
ATOM     20  C   UNL     1       3.250  10.190   0.086  0.00  0.00    +0.005 A 
ATOM     21  C   UNL     1       4.031   9.920  -1.036  0.00  0.00    +0.013 A 
ATOM     22  C   UNL     1       2.072  11.806   1.608  0.00  0.00    +0.044 C 
ENDBRANCH   9  20
ENDBRANCH   8  10
ENDBRANCH   1   8
BRANCH   5  23
ATOM     23  C   UNL     1       0.536   3.235  -0.462  0.00  0.00    +0.045 C 
BRANCH  23  24
ATOM     24  C   UNL     1      -0.182   3.745  -1.713  0.00  0.00    +0.157 C 
BRANCH  24  25
ATOM     25  O   UNL     1      -1.514   3.226  -1.742  0.00  0.00    -0.395 OA
ATOM     26  H   UNL     1      -2.187   3.485  -2.573  0.00  0.00    +0.209 HD
ENDBRANCH  24  25
ENDBRANCH  23  24
ENDBRANCH   5  23
BRANCH   4  27
ATOM     27  C   UNL     1       2.595   1.686   0.739  0.00  0.00    +0.119 C 
BRANCH  27  28
ATOM     28  C   UNL     1       3.024   1.206   2.101  0.00  0.00    -0.033 A 
ATOM     29  C   UNL     1       2.093   1.085   3.116  0.00  0.00    +0.008 A 
ATOM     30  C   UNL     1       2.484   0.646   4.366  0.00  0.00    +0.046 A 
ATOM     31  C   UNL     1       3.813   0.325   4.602  0.00  0.00    +0.123 A 
ATOM     32  C   UNL     1       4.746   0.447   3.583  0.00  0.00    -0.009 A 
ATOM     33  C   UNL     1       4.348   0.882   2.333  0.00  0.00    +0.011 A 
ATOM     34  C   UNL     1       6.190   0.100   3.836  0.00  0.00    +0.047 C 
BRANCH  31  35
ATOM     35  O   UNL     1       4.201  -0.107   5.831  0.00  0.00    -0.495 OA
ATOM     36  C   UNL     1       3.187  -0.209   6.833  0.00  0.00    +0.277 C 
ENDBRANCH  31  35
ENDBRANCH  27  28
ENDBRANCH   4  27
TORSDOF 9
