REMARK  Name = ZINC00386709
REMARK  6 active torsions:
REMARK  status: ('A' for Active; 'I' for Inactive)
REMARK    1  A    between atoms: C_1  and  C_2
REMARK    2  A    between atoms: C_2  and  C_3
REMARK    3  A    between atoms: C_2  and  C_4
REMARK    4  A    between atoms: C_2  and  N_5
REMARK    5  A    between atoms: C_6  and  C_8
REMARK    6  A    between atoms: C_8  and  C_9
REMARK                            x       y       z     vdW  Elec       q    Type
REMARK                         _______ _______ _______ _____ _____    ______ ____
ROOT
ATOM      1  C   UNL     1       0.002  -0.004   0.002  0.00  0.00    +0.146 C 
ATOM      2  C   UNL     1      -0.018   1.502   0.010  0.00  0.00    +0.231 C 
ATOM      3  O   UNL     1      -1.093   2.065   0.018  0.00  0.00    -0.274 OA
ATOM      4  N   UNL     1       1.084   2.245   0.004  0.00  0.00    -0.284 N 
ATOM      5  C   UNL     1       2.392   1.789  -0.128  0.00  0.00    +0.047 A 
ATOM      6  C   UNL     1       3.442   2.626   0.236  0.00  0.00    +0.024 A 
ATOM      7  C   UNL     1       4.748   2.190   0.132  0.00  0.00    +0.002 A 
ATOM      8  C   UNL     1       5.028   0.918  -0.333  0.00  0.00    +0.001 A 
ATOM      9  C   UNL     1       3.994   0.077  -0.702  0.00  0.00    +0.016 A 
ATOM     10  C   UNL     1       2.683   0.511  -0.602  0.00  0.00    +0.030 A 
ATOM     11  S   UNL     1       1.358  -0.556  -1.078  0.00  0.00    -0.110 S 
ATOM     12  H   UNL     1       0.964   3.203   0.101  0.00  0.00    +0.155 HD
ENDROOT
BRANCH   1  13
ATOM     13  C   UNL     1       0.228  -0.523   1.423  0.00  0.00    +0.119 C 
BRANCH  13  15
ATOM     14  N   UNL     1       0.290  -2.707   2.583  0.00  0.00    -0.311 N 
ATOM     15  C   UNL     1       0.125  -2.027   1.431  0.00  0.00    +0.215 C 
ATOM     16  O   UNL     1      -0.105  -2.624   0.402  0.00  0.00    -0.276 OA
ATOM     17  H   UNL     1       0.474  -2.229   3.407  0.00  0.00    +0.149 HD
BRANCH  14  19
ATOM     18  C   UNL     1       1.251  -4.757   1.659  0.00  0.00    +0.031 C 
ATOM     19  C   UNL     1       0.190  -4.169   2.591  0.00  0.00    +0.026 C 
ATOM     20  C   UNL     1       0.416  -4.688   4.012  0.00  0.00    +0.031 C 
ATOM     21  C   UNL     1      -1.200  -4.588   2.109  0.00  0.00    +0.031 C 
ENDBRANCH  14  19
ENDBRANCH  13  15
ENDBRANCH   1  13
TORSDOF 3
