REMARK  Name = ZINC12791591
REMARK  7 active torsions:
REMARK  status: ('A' for Active; 'I' for Inactive)
REMARK    1  A    between atoms: C_6  and  C_7
REMARK    2  A    between atoms: C_7  and  N_52
REMARK    3  A    between atoms: C_8  and  C_9
REMARK    4  A    between atoms: C_8  and  N_52
REMARK    5  A    between atoms: N_11  and  C_12
REMARK    6  A    between atoms: C_15  and  N_19
REMARK    7  A    between atoms: C_22  and  N_52
REMARK                            x       y       z     vdW  Elec       q    Type
REMARK                         _______ _______ _______ _____ _____    ______ ____
ROOT
ATOM      1  N   UNL     1       4.082   2.564  -1.425  0.00  0.00    +0.390 N 
ATOM      2  H   UNL     1       4.251   2.281  -2.397  0.00  0.00    -0.080 HD
ENDROOT
BRANCH   1   3
ATOM      3  C   UNL     1       3.154   3.714  -1.413  0.00  0.00    -0.067 C 
ATOM      4  C   UNL     1       3.798   4.905  -2.152  0.00  0.00    -0.015 C 
ATOM      5  C   UNL     1       3.324   6.147  -1.358  0.00  0.00    -0.002 C 
ATOM      6  C   UNL     1       3.361   5.649   0.109  0.00  0.00    -0.002 C 
ATOM      7  C   UNL     1       2.876   4.187   0.025  0.00  0.00    -0.015 C 
ENDBRANCH   1   3
BRANCH   1   8
ATOM      8  C   UNL     1       3.488   1.428  -0.690  0.00  0.00    -0.042 C 
BRANCH   8  14
ATOM      9  C   UNL     1       2.702  -0.097  -2.511  0.00  0.00    +0.005 A 
ATOM     10  C   UNL     1       1.699  -0.651  -3.286  0.00  0.00    +0.050 A 
ATOM     11  C   UNL     1       0.380  -0.279  -3.082  0.00  0.00    +0.166 A 
ATOM     12  C   UNL     1       0.068   0.653  -2.095  0.00  0.00    +0.166 A 
ATOM     13  C   UNL     1       1.077   1.204  -1.323  0.00  0.00    +0.051 A 
ATOM     14  C   UNL     1       2.391   0.827  -1.532  0.00  0.00    -0.060 A 
ATOM     15  O   UNL     1      -1.283   0.853  -2.096  0.00  0.00    -0.453 OA
ATOM     16  C   UNL     1      -1.749   0.337  -3.355  0.00  0.00    +0.466 C 
ATOM     17  O   UNL     1      -0.775  -0.667  -3.697  0.00  0.00    -0.453 OA
ENDBRANCH   8  14
ENDBRANCH   1   8
BRANCH   1  18
ATOM     18  C   UNL     1       5.369   2.948  -0.806  0.00  0.00    +0.020 C 
BRANCH  18  19
ATOM     19  C   UNL     1       6.342   3.293  -1.904  0.00  0.00    +0.201 C 
ATOM     20  O   UNL     1       6.005   3.197  -3.065  0.00  0.00    -0.278 OA
ATOM     21  N   UNL     1       7.586   3.709  -1.595  0.00  0.00    -0.286 N 
ATOM     22  H   UNL     1       7.875   3.731  -0.669  0.00  0.00    +0.155 HD
BRANCH  21  23
ATOM     23  C   UNL     1       8.463   4.109  -2.611  0.00  0.00    +0.048 A 
ATOM     24  C   UNL     1       8.328   3.588  -3.891  0.00  0.00    +0.026 A 
ATOM     25  C   UNL     1       9.194   3.985  -4.891  0.00  0.00    +0.034 A 
ATOM     26  C   UNL     1      10.195   4.900  -4.619  0.00  0.00    +0.127 A 
ATOM     27  C   UNL     1      10.332   5.421  -3.345  0.00  0.00    +0.049 A 
ATOM     28  C   UNL     1       9.465   5.032  -2.341  0.00  0.00    +0.041 A 
ATOM     29 BR   UNL     1       9.648   5.751  -0.602  0.00  0.00    -0.048 Br
BRANCH  26  30
ATOM     30  N   UNL     1      11.122   5.322  -5.693  0.00  0.00    +0.056 N 
ATOM     31  O   UNL     1      11.002   4.865  -6.815  0.00  0.00    -0.126 OA
ATOM     32  O   UNL     1      12.004   6.128  -5.455  0.00  0.00    -0.126 OA
ENDBRANCH  26  30
ENDBRANCH  21  23
ENDBRANCH  18  19
ENDBRANCH   1  18
TORSDOF 7
