REMARK  Name = ZINC44785352
REMARK  5 active torsions:
REMARK  status: ('A' for Active; 'I' for Inactive)
REMARK    1  A    between atoms: C_1  and  C_2
REMARK    2  A    between atoms: C_2  and  C_3
REMARK    3  A    between atoms: C_10  and  C_12
REMARK    4  A    between atoms: C_12  and  C_19
REMARK    5  A    between atoms: N_20  and  O_21
REMARK                            x       y       z     vdW  Elec       q    Type
REMARK                         _______ _______ _______ _____ _____    ______ ____
ROOT
ATOM      1  C   UNL     1       1.816  -3.754  -4.503  0.00  0.00    +0.105 C 
ATOM      2  C   UNL     1       2.368  -2.575  -5.257  0.00  0.00    +0.024 C 
ATOM      3  C   UNL     1       1.451  -1.339  -5.173  0.00  0.00    +0.001 C 
ATOM      4  C   UNL     1      -0.041  -1.692  -5.320  0.00  0.00    +0.000 C 
ATOM      5  C   UNL     1      -0.288  -2.717  -6.394  0.00  0.00    +0.000 C 
ATOM      6  C   UNL     1      -0.317  -4.114  -5.740  0.00  0.00    +0.001 C 
ATOM      7  C   UNL     1       1.019  -4.635  -5.486  0.00  0.00    +0.024 C 
ENDROOT
BRANCH   1  14
ATOM      8  C   UNL     1      -0.334  -4.405  -0.299  0.00  0.00    +0.006 C 
ATOM      9  C   UNL     1      -0.338  -5.919  -0.521  0.00  0.00    +0.006 C 
ATOM     10  C   UNL     1       0.708  -6.285  -1.577  0.00  0.00    +0.019 C 
ATOM     11  C   UNL     1       0.351  -5.601  -2.901  0.00  0.00    +0.108 C 
ATOM     12  N   UNL     1       0.210  -4.158  -2.665  0.00  0.00    -0.300 N 
ATOM     13  C   UNL     1      -0.702  -3.700  -1.608  0.00  0.00    +0.111 C 
ATOM     14  C   UNL     1       0.905  -3.270  -3.404  0.00  0.00    +0.229 C 
ATOM     15  O   UNL     1       0.798  -2.082  -3.184  0.00  0.00    -0.275 OA
BRANCH   8  17
ATOM     16  C   UNL     1      -0.922  -4.649   2.117  0.00  0.00    +0.004 C 
ATOM     17  C   UNL     1      -1.357  -4.045   0.780  0.00  0.00    +0.002 C 
ENDBRANCH   8  17
ENDBRANCH   1  14
BRANCH   1  18
ATOM     18  C   UNL     1       2.946  -4.554  -3.908  0.00  0.00    +0.147 C 
ATOM     19  N   UNL     1       3.184  -5.750  -4.333  0.00  0.00    -0.076 NA
ATOM     20  N   UNL     1       3.725  -4.010  -2.911  0.00  0.00    -0.343 N 
ATOM     21  H   UNL     1       3.594  -3.087  -2.643  0.00  0.00    +0.144 HD
ATOM     22  H   UNL     1       4.405  -4.549  -2.478  0.00  0.00    +0.144 HD
BRANCH  19  23
ATOM     23  O   UNL     1       4.246  -6.502  -3.775  0.00  0.00    -0.408 OA
ATOM     24  H   UNL     1       4.347  -7.385  -4.157  0.00  0.00    +0.328 HD
ENDBRANCH  19  23
ENDBRANCH   1  18
TORSDOF 4
