REMARK  Name = ZINC12407277
REMARK  3 active torsions:
REMARK  status: ('A' for Active; 'I' for Inactive)
REMARK    1  A    between atoms: C_1  and  C_2
REMARK    2  A    between atoms: C_5  and  N_9
REMARK    3  A    between atoms: C_7  and  C_8
REMARK                            x       y       z     vdW  Elec       q    Type
REMARK                         _______ _______ _______ _____ _____    ______ ____
ROOT
ATOM      1  N   UNL     1       1.462   0.043  -0.012  0.00  0.00    -0.236 N 
ATOM      2  C   UNL     1       1.292   1.416  -0.003  0.00  0.00    +0.194 C 
ATOM      3  N   UNL     1      -0.018   1.457   0.010  0.00  0.00    -0.215 NA
ATOM      4  C   UNL     1       0.002  -0.004   0.002  0.00  0.00    +0.241 C 
ATOM      5  C   UNL     1      -0.622  -0.676   1.195  0.00  0.00    +0.029 A 
ATOM      6  C   UNL     1      -0.463  -0.527   2.555  0.00  0.00    +0.010 A 
ATOM      7  C   UNL     1      -1.196  -1.311   3.427  0.00  0.00    +0.001 A 
ATOM      8  C   UNL     1      -2.088  -2.243   2.930  0.00  0.00    +0.002 A 
ATOM      9  C   UNL     1      -2.251  -2.396   1.569  0.00  0.00    +0.024 A 
ATOM     10  C   UNL     1      -1.517  -1.610   0.684  0.00  0.00    +0.041 A 
ATOM     11  N   UNL     1      -1.505  -1.577  -0.712  0.00  0.00    -0.281 N 
ATOM     12  C   UNL     1      -0.642  -0.661  -1.191  0.00  0.00    +0.269 C 
ATOM     13  O   UNL     1      -0.425  -0.413  -2.359  0.00  0.00    -0.271 OA
ATOM     14  N   UNL     1       2.220   2.435  -0.006  0.00  0.00    -0.256 N 
ATOM     15  C   UNL     1       1.803   3.748   0.005  0.00  0.00    +0.224 C 
ATOM     16  N   UNL     1       2.639   4.822   0.003  0.00  0.00    -0.210 NA
ATOM     17  C   UNL     1       1.938   5.917   0.015  0.00  0.00    +0.121 C 
ATOM     18  C   UNL     1       1.881   7.401   0.023  0.00  0.00    +0.030 A 
ATOM     19  C   UNL     1       2.827   8.399   0.019  0.00  0.00    +0.012 A 
ATOM     20  C   UNL     1       2.427   9.741   0.029  0.00  0.00    +0.001 A 
ATOM     21  C   UNL     1       1.100  10.060   0.042  0.00  0.00    +0.002 A 
ATOM     22  C   UNL     1       0.128   9.061   0.046  0.00  0.00    +0.028 A 
ATOM     23  C   UNL     1       0.506   7.721   0.036  0.00  0.00    +0.076 A 
ATOM     24  N   UNL     1      -0.228   6.567   0.037  0.00  0.00    -0.226 NA
ATOM     25  C   UNL     1       0.508   5.494   0.026  0.00  0.00    +0.183 C 
ATOM     26  N   UNL     1       0.545   4.128   0.013  0.00  0.00    -0.193 NA
ATOM     27  H   UNL     1      -2.054  -2.147  -1.272  0.00  0.00    +0.155 HD
ATOM     28  H   UNL     1       3.168   2.227  -0.016  0.00  0.00    +0.158 HD
ENDROOT
BRANCH   1  33
ATOM     29  C   UNL     1       5.773  -3.643  -0.076  0.00  0.00    +0.044 C 
ATOM     30  C   UNL     1       4.628  -2.664  -0.058  0.00  0.00    -0.047 A 
ATOM     31  C   UNL     1       3.325  -3.126  -0.047  0.00  0.00    +0.005 A 
ATOM     32  C   UNL     1       2.273  -2.232  -0.032  0.00  0.00    +0.024 A 
ATOM     33  C   UNL     1       2.525  -0.866  -0.027  0.00  0.00    +0.040 A 
ATOM     34  C   UNL     1       3.835  -0.405  -0.043  0.00  0.00    +0.027 A 
ATOM     35  C   UNL     1       4.883  -1.305  -0.053  0.00  0.00    -0.046 A 
ATOM     36  C   UNL     1       6.304  -0.805  -0.065  0.00  0.00    +0.044 C 
ENDBRANCH   1  33
TORSDOF 1
