REMARK  Name = ZINC00499550
REMARK  3 active torsions:
REMARK  status: ('A' for Active; 'I' for Inactive)
REMARK    1  A    between atoms: C_1  and  C_2
REMARK    2  A    between atoms: N_14  and  N_17
REMARK    3  A    between atoms: C_18  and  C_19
REMARK                            x       y       z     vdW  Elec       q    Type
REMARK                         _______ _______ _______ _____ _____    ______ ____
ROOT
ATOM      1  C   UNL     1       3.979   4.951  -0.010  0.00  0.00    +0.044 C 
ATOM      2  C   UNL     1       2.962   3.839  -0.001  0.00  0.00    -0.050 A 
ATOM      3  C   UNL     1       3.386   2.517  -0.005  0.00  0.00    +0.005 A 
ATOM      4  C   UNL     1       2.472   1.488   0.003  0.00  0.00    +0.026 A 
ATOM      5  C   UNL     1       1.108   1.770   0.014  0.00  0.00    +0.049 A 
ATOM      6  C   UNL     1       0.685   3.111   0.017  0.00  0.00    +0.026 A 
ATOM      7  C   UNL     1       1.629   4.139   0.009  0.00  0.00    +0.015 A 
ATOM      8  C   UNL     1      -0.783   3.085   0.028  0.00  0.00    +0.103 A 
ATOM      9  C   UNL     1      -1.155   1.742   0.025  0.00  0.00    +0.133 A 
ATOM     10  N   UNL     1      -0.011   0.966   0.022  0.00  0.00    -0.349 N 
ATOM     11  H   UNL     1       0.002  -0.004   0.022  0.00  0.00    +0.166 HD
ATOM     12  C   UNL     1      -2.532   1.428   0.029  0.00  0.00    +0.298 A 
ATOM     13  O   UNL     1      -2.908   0.267   0.029  0.00  0.00    -0.263 OA
ATOM     14  N   UNL     1      -3.423   2.443   0.031  0.00  0.00    -0.184 N 
ATOM     15  C   UNL     1      -2.997   3.733   0.030  0.00  0.00    +0.227 A 
ATOM     16  N   UNL     1      -1.730   4.039   0.035  0.00  0.00    -0.233 NA
ENDROOT
BRANCH  14  17
ATOM     17  N   UNL     1      -4.796   2.164   0.035  0.00  0.00    -0.170 NA
ATOM     18  C   UNL     1      -5.655   3.131   0.141  0.00  0.00    +0.141 C 
BRANCH  18  19
ATOM     19  C   UNL     1      -7.094   2.831   0.257  0.00  0.00    -0.005 A 
ATOM     20  C   UNL     1      -7.537   1.506   0.247  0.00  0.00    +0.011 A 
ATOM     21  C   UNL     1      -8.883   1.231   0.361  0.00  0.00    +0.020 A 
ATOM     22  C   UNL     1      -9.797   2.265   0.475  0.00  0.00    +0.041 A 
ATOM     23  C   UNL     1      -9.365   3.582   0.481  0.00  0.00    +0.020 A 
ATOM     24  C   UNL     1      -8.021   3.870   0.373  0.00  0.00    +0.011 A 
ATOM     25 CL   UNL     1     -11.491   1.911   0.610  0.00  0.00    -0.084 Cl
ENDBRANCH  18  19
ENDBRANCH  14  17
TORSDOF 2
