REMARK  Name = ZINC22372539
REMARK  9 active torsions:
REMARK  status: ('A' for Active; 'I' for Inactive)
REMARK    1  A    between atoms: C_1  and  S_2
REMARK    2  A    between atoms: S_2  and  N_5
REMARK    3  A    between atoms: N_5  and  C_6
REMARK    4  A    between atoms: N_5  and  C_25
REMARK    5  A    between atoms: C_6  and  C_7
REMARK    6  A    between atoms: N_9  and  C_10
REMARK    7  A    between atoms: C_15  and  S_16
REMARK    8  A    between atoms: S_16  and  C_17
REMARK    9  A    between atoms: C_17  and  C_18
REMARK                            x       y       z     vdW  Elec       q    Type
REMARK                         _______ _______ _______ _____ _____    ______ ____
ROOT
ATOM      1  C   UNL     1       5.002  -0.029   1.926  0.00  0.00    +0.236 C 
ATOM      2  O   UNL     1       4.202  -0.647   2.596  0.00  0.00    -0.274 OA
ATOM      3  N   UNL     1       5.987   0.668   2.526  0.00  0.00    -0.283 N 
ATOM      4  H   UNL     1       6.661   1.296   1.926  0.00  0.00    +0.155 HD
ENDROOT
BRANCH   3   5
ATOM      5  C   UNL     1       6.152   0.594   3.916  0.00  0.00    +0.047 A 
ATOM      6  C   UNL     1       5.613  -0.470   4.624  0.00  0.00    +0.024 A 
ATOM      7  C   UNL     1       5.781  -0.545   5.994  0.00  0.00    +0.002 A 
ATOM      8  C   UNL     1       6.476   0.445   6.665  0.00  0.00    +0.001 A 
ATOM      9  C   UNL     1       7.012   1.512   5.969  0.00  0.00    +0.016 A 
ATOM     10  C   UNL     1       6.853   1.592   4.593  0.00  0.00    +0.029 A 
BRANCH  10  11
ATOM     11  S   UNL     1       7.535   2.951   3.702  0.00  0.00    -0.119 S 
BRANCH  11  12
ATOM     12  C   UNL     1       8.333   3.958   4.982  0.00  0.00    +0.109 C 
BRANCH  12  13
ATOM     13  C   UNL     1       8.965   5.170   4.347  0.00  0.00    -0.037 A 
ATOM     14  C   UNL     1      10.275   5.116   3.907  0.00  0.00    +0.006 A 
ATOM     15  C   UNL     1      10.853   6.225   3.319  0.00  0.00    +0.020 A 
ATOM     16  C   UNL     1      10.125   7.393   3.180  0.00  0.00    +0.041 A 
ATOM     17  C   UNL     1       8.816   7.448   3.625  0.00  0.00    +0.020 A 
ATOM     18  C   UNL     1       8.237   6.337   4.208  0.00  0.00    +0.006 A 
ATOM     19 CL   UNL     1      10.853   8.788   2.448  0.00  0.00    -0.084 Cl
ENDBRANCH  12  13
ENDBRANCH  11  12
ENDBRANCH  10  11
ENDBRANCH   3   5
BRANCH   1  20
ATOM     20  C   UNL     1       4.895  -0.040   0.423  0.00  0.00    +0.227 C 
BRANCH  20  21
ATOM     21  N   UNL     1       3.752  -0.863   0.021  0.00  0.00    -0.199 N 
BRANCH  21  22
ATOM     22  C   UNL     1       2.470  -0.304  -0.026  0.00  0.00    +0.055 A 
ATOM     23  C   UNL     1       1.452  -0.833   0.757  0.00  0.00    +0.028 A 
ATOM     24  C   UNL     1       0.186  -0.282   0.710  0.00  0.00    +0.051 A 
ATOM     25  C   UNL     1      -0.073   0.799  -0.118  0.00  0.00    +0.162 A 
ATOM     26  C   UNL     1       0.944   1.333  -0.902  0.00  0.00    +0.164 A 
ATOM     27  C   UNL     1       2.214   0.779  -0.855  0.00  0.00    +0.074 A 
ATOM     28  O   UNL     1       0.710   2.399  -1.715  0.00  0.00    -0.485 OA
ATOM     29  C   UNL     1      -0.658   2.691  -2.017  0.00  0.00    +0.270 C 
ATOM     30  C   UNL     1      -1.461   2.638  -0.710  0.00  0.00    +0.270 C 
ATOM     31  O   UNL     1      -1.330   1.323  -0.158  0.00  0.00    -0.485 OA
ENDBRANCH  21  22
BRANCH  21  33
ATOM     32  C   UNL     1       4.440  -2.434  -2.132  0.00  0.00    +0.218 C 
ATOM     33  S   UNL     1       3.977  -2.454  -0.378  0.00  0.00    +0.043 S 
ATOM     34  O   UNL     1       5.079  -2.874   0.414  0.00  0.00    -0.155 OA
ATOM     35  O   UNL     1       2.698  -3.053  -0.217  0.00  0.00    -0.155 OA
ENDBRANCH  21  33
ENDBRANCH  20  21
ENDBRANCH   1  20
TORSDOF 8
