REMARK  Name = ZINC44862956
REMARK  7 active torsions:
REMARK  status: ('A' for Active; 'I' for Inactive)
REMARK    1  A    between atoms: C_1  and  C_2
REMARK    2  A    between atoms: C_2  and  C_3
REMARK    3  A    between atoms: C_2  and  C_4
REMARK    4  A    between atoms: C_4  and  C_6
REMARK    5  A    between atoms: C_4  and  C_10
REMARK    6  A    between atoms: N_7  and  O_8
REMARK    7  A    between atoms: N_12  and  C_13
REMARK                            x       y       z     vdW  Elec       q    Type
REMARK                         _______ _______ _______ _____ _____    ______ ____
ROOT
ATOM      1  C   UNL     1      -1.892  -1.721   0.445  0.00  0.00    +0.228 C 
ATOM      2  O   UNL     1      -2.756  -2.242  -0.228  0.00  0.00    -0.275 OA
ATOM      3  N   UNL     1      -1.171  -2.463   1.308  0.00  0.00    -0.284 N 
ATOM      4  H   UNL     1      -0.468  -2.050   1.833  0.00  0.00    +0.155 HD
ENDROOT
BRANCH   3   5
ATOM      5  C   UNL     1      -1.437  -3.831   1.447  0.00  0.00    +0.053 A 
ATOM      6  C   UNL     1      -2.091  -4.519   0.434  0.00  0.00    +0.046 A 
ATOM      7  C   UNL     1      -2.353  -5.869   0.574  0.00  0.00    +0.061 A 
ATOM      8  C   UNL     1      -1.963  -6.535   1.724  0.00  0.00    +0.061 A 
ATOM      9  C   UNL     1      -1.312  -5.852   2.735  0.00  0.00    +0.043 A 
ATOM     10  C   UNL     1      -1.042  -4.503   2.598  0.00  0.00    +0.064 A 
ATOM     11 CL   UNL     1      -0.218  -3.649   3.864  0.00  0.00    -0.082 Cl
ATOM     12 CL   UNL     1      -2.293  -8.231   1.896  0.00  0.00    -0.082 Cl
ATOM     13 CL   UNL     1      -3.170  -6.729  -0.693  0.00  0.00    -0.082 Cl
ENDBRANCH   3   5
BRANCH   1  14
ATOM     14  C   UNL     1      -1.625  -0.243   0.316  0.00  0.00    +0.144 C 
BRANCH  14  15
ATOM     15  C   UNL     1      -2.851   0.444  -0.228  0.00  0.00    +0.144 C 
ATOM     16  N   UNL     1      -2.958   0.665  -1.496  0.00  0.00    -0.076 NA
ATOM     17  N   UNL     1      -3.857   0.835   0.627  0.00  0.00    -0.343 N 
ATOM     18  H   UNL     1      -3.777   0.668   1.579  0.00  0.00    +0.144 HD
ATOM     19  H   UNL     1      -4.647   1.277   0.277  0.00  0.00    +0.144 HD
BRANCH  16  20
ATOM     20  O   UNL     1      -4.110   1.311  -2.007  0.00  0.00    -0.408 OA
ATOM     21  H   UNL     1      -4.100   1.433  -2.966  0.00  0.00    +0.328 HD
ENDBRANCH  16  20
ENDBRANCH  14  15
BRANCH  14  23
ATOM     22  C   UNL     1      -0.160   1.479  -0.747  0.00  0.00    +0.008 C 
ATOM     23  C   UNL     1      -0.450  -0.019  -0.638  0.00  0.00    +0.002 C 
ATOM     24  C   UNL     1       0.788  -0.740  -0.100  0.00  0.00    +0.008 C 
ENDBRANCH  14  23
ENDBRANCH   1  14
TORSDOF 5
