REMARK  Name = ZINC13132815
REMARK  7 active torsions:
REMARK  status: ('A' for Active; 'I' for Inactive)
REMARK    1  A    between atoms: C_1  and  C_2
REMARK    2  A    between atoms: C_5  and  C_25
REMARK    3  A    between atoms: N_9  and  N_10
REMARK    4  A    between atoms: C_11  and  C_13
REMARK    5  A    between atoms: C_13  and  N_14
REMARK    6  A    between atoms: N_14  and  C_15
REMARK    7  A    between atoms: C_25  and  C_27
REMARK                            x       y       z     vdW  Elec       q    Type
REMARK                         _______ _______ _______ _____ _____    ______ ____
ROOT
ATOM      1  N   UNL     1      -0.166  -0.859   3.604  0.00  0.00    -0.205 N 
ATOM      2  C   UNL     1      -0.391  -0.232   4.776  0.00  0.00    +0.249 C 
ATOM      3  O   UNL     1      -0.616   0.960   4.792  0.00  0.00    -0.272 OA
ATOM      4  H   UNL     1       0.014  -1.812   3.591  0.00  0.00    +0.177 HD
ENDROOT
BRANCH   1  12
ATOM      5  C   UNL     1      -0.018   1.503   0.010  0.00  0.00    +0.045 C 
ATOM      6  C   UNL     1       0.002  -0.004   0.002  0.00  0.00    -0.032 C 
ATOM      7  C   UNL     1       0.005  -0.654  -1.152  0.00  0.00    -0.021 C 
ATOM      8  C   UNL     1       0.035  -2.150  -1.252  0.00  0.00    +0.035 C 
ATOM      9  C   UNL     1      -0.474  -2.800   0.033  0.00  0.00    +0.024 C 
ATOM     10  C   UNL     1       0.303  -2.227   1.226  0.00  0.00    +0.065 C 
ATOM     11  C   UNL     1       0.024  -0.740   1.276  0.00  0.00    +0.062 C 
ATOM     12  N   UNL     1      -0.193  -0.135   2.405  0.00  0.00    -0.185 NA
BRANCH   9  13
ATOM     13  C   UNL     1      -0.265  -4.291  -0.039  0.00  0.00    -0.076 C 
ATOM     14  C   UNL     1      -1.291  -5.101   0.040  0.00  0.00    +0.007 C 
ATOM     15  C   UNL     1       1.126  -4.849  -0.202  0.00  0.00    +0.039 C 
ENDBRANCH   9  13
ENDBRANCH   1  12
BRANCH   2  16
ATOM     16  C   UNL     1      -0.362  -1.011   6.066  0.00  0.00    +0.199 C 
BRANCH  16  17
ATOM     17  N   UNL     1      -0.634  -0.109   7.187  0.00  0.00    -0.335 N 
ATOM     18  H   UNL     1      -0.796   0.834   7.024  0.00  0.00    +0.147 HD
BRANCH  17  19
ATOM     19  C   UNL     1      -0.659  -0.604   8.489  0.00  0.00    +0.035 A 
ATOM     20  C   UNL     1      -0.424  -1.941   8.730  0.00  0.00    +0.023 A 
ATOM     21  C   UNL     1      -0.447  -2.446  10.026  0.00  0.00    +0.002 A 
ATOM     22  C   UNL     1      -0.702  -1.636  11.091  0.00  0.00    +0.008 A 
ATOM     23  C   UNL     1      -0.947  -0.268  10.889  0.00  0.00    -0.016 A 
ATOM     24  C   UNL     1      -0.921   0.259   9.575  0.00  0.00    +0.003 A 
ATOM     25  C   UNL     1      -1.161   1.628   9.376  0.00  0.00    +0.010 A 
ATOM     26  C   UNL     1      -1.410   2.431  10.446  0.00  0.00    +0.001 A 
ATOM     27  C   UNL     1      -1.430   1.915  11.740  0.00  0.00    +0.001 A 
ATOM     28  C   UNL     1      -1.214   0.591  11.970  0.00  0.00    +0.008 A 
ENDBRANCH  17  19
ENDBRANCH  16  17
ENDBRANCH   2  16
TORSDOF 5
