REMARK  Name = ZINC44387877
REMARK  5 active torsions:
REMARK  status: ('A' for Active; 'I' for Inactive)
REMARK    1  A    between atoms: C_6  and  N_7
REMARK    2  A    between atoms: C_8  and  C_10
REMARK    3  A    between atoms: C_10  and  N_11
REMARK    4  A    between atoms: N_11  and  S_12
REMARK    5  A    between atoms: S_12  and  C_15
REMARK                            x       y       z     vdW  Elec       q    Type
REMARK                         _______ _______ _______ _____ _____    ______ ____
ROOT
ATOM      1  N   UNL     1      -1.202  -0.720   0.010  0.00  0.00    -0.284 N 
ATOM      2  C   UNL     1      -2.374  -0.065   0.126  0.00  0.00    +0.233 C 
ATOM      3  O   UNL     1      -2.393   1.148   0.133  0.00  0.00    -0.274 OA
ATOM      4  H   UNL     1      -1.192  -1.687  -0.063  0.00  0.00    +0.155 HD
ENDROOT
BRANCH   1  10
ATOM      5  C   UNL     1       1.138  -0.544   0.584  0.00  0.00    +0.025 A 
ATOM      6  C   UNL     1       2.328   0.157   0.572  0.00  0.00    +0.029 A 
ATOM      7  C   UNL     1       2.390   1.404  -0.031  0.00  0.00    +0.067 A 
ATOM      8  C   UNL     1       1.250   1.950  -0.625  0.00  0.00    +0.069 A 
ATOM      9  C   UNL     1       0.057   1.244  -0.610  0.00  0.00    +0.051 A 
ATOM     10  C   UNL     1       0.002  -0.003  -0.006  0.00  0.00    +0.035 A 
ATOM     11  N   UNL     1       1.618   3.191  -1.138  0.00  0.00    -0.306 N 
ATOM     12  H   UNL     1       1.034   3.807  -1.608  0.00  0.00    +0.170 HD
ATOM     13  C   UNL     1       2.922   3.392  -0.869  0.00  0.00    +0.325 A 
ATOM     14  O   UNL     1       3.557   4.382  -1.181  0.00  0.00    -0.247 OA
ATOM     15  N   UNL     1       3.416   2.332  -0.202  0.00  0.00    -0.306 N 
ATOM     16  H   UNL     1       4.330   2.232   0.107  0.00  0.00    +0.170 HD
ENDBRANCH   1  10
BRANCH   2  17
ATOM     17  C   UNL     1      -3.662  -0.839   0.248  0.00  0.00    +0.201 C 
BRANCH  17  18
ATOM     18  N   UNL     1      -4.785   0.095   0.360  0.00  0.00    -0.181 NA
ATOM     19  H   UNL     1      -4.620   1.028   0.567  0.00  0.00    +0.149 HD
BRANCH  18  20
ATOM     20  S   UNL     1      -6.335  -0.443   0.136  0.00  0.00    +0.062 S 
ATOM     21  O   UNL     1      -7.186   0.677   0.335  0.00  0.00    -0.153 OA
ATOM     22  O   UNL     1      -6.333  -1.194  -1.071  0.00  0.00    -0.153 OA
BRANCH  20  23
ATOM     23  C   UNL     1      -6.685  -1.580   1.436  0.00  0.00    +0.140 A 
ATOM     24  C   UNL     1      -7.663  -1.284   2.367  0.00  0.00    +0.033 A 
ATOM     25  C   UNL     1      -7.939  -2.175   3.387  0.00  0.00    +0.022 A 
ATOM     26  C   UNL     1      -7.237  -3.364   3.477  0.00  0.00    +0.044 A 
ATOM     27  C   UNL     1      -6.258  -3.662   2.545  0.00  0.00    +0.060 A 
ATOM     28  C   UNL     1      -5.986  -2.771   1.521  0.00  0.00    +0.151 A 
ATOM     29  F   UNL     1      -5.034  -3.063   0.608  0.00  0.00    -0.203 F 
ATOM     30 CL   UNL     1      -7.583  -4.482   4.759  0.00  0.00    -0.083 Cl
ENDBRANCH  20  23
ENDBRANCH  18  20
ENDBRANCH  17  18
ENDBRANCH   2  17
TORSDOF 5
