REMARK  Name = ZINC39689396
REMARK  7 active torsions:
REMARK  status: ('A' for Active; 'I' for Inactive)
REMARK    1  A    between atoms: C_1  and  C_2
REMARK    2  A    between atoms: C_6  and  C_8
REMARK    3  A    between atoms: C_8  and  C_9
REMARK    4  A    between atoms: C_9  and  N_10
REMARK    5  A    between atoms: C_11  and  C_13
REMARK    6  A    between atoms: C_24  and  C_26
REMARK    7  A    between atoms: C_30  and  C_32
REMARK                            x       y       z     vdW  Elec       q    Type
REMARK                         _______ _______ _______ _____ _____    ______ ____
ROOT
ATOM      1  C   UNL     1       2.838  -4.218   6.061  0.00  0.00    +0.100 C 
ATOM      2  C   UNL     1       2.140  -3.652   7.318  0.00  0.00    +0.121 C 
ATOM      3  N   UNL     1       2.994  -4.088   8.448  0.00  0.00    -0.296 N 
ATOM      4  C   UNL     1       4.380  -3.938   7.943  0.00  0.00    +0.115 C 
ATOM      5  C   UNL     1       4.308  -4.404   6.475  0.00  0.00    -0.004 C 
ATOM      6  C   UNL     1       5.215  -3.541   5.604  0.00  0.00    -0.010 C 
ATOM      7  C   UNL     1       6.675  -3.786   5.995  0.00  0.00    -0.082 C 
ATOM      8  N   UNL     1       6.999  -5.207   5.817  0.00  0.00    +0.379 N 
ATOM      9  C   UNL     1       6.187  -6.023   6.727  0.00  0.00    -0.082 C 
ATOM     10  C   UNL     1       4.706  -5.872   6.367  0.00  0.00    -0.010 C 
ATOM     11  C   UNL     1       2.599  -4.522   9.662  0.00  0.00    +0.247 C 
ATOM     12  O   UNL     1       1.420  -4.713   9.885  0.00  0.00    -0.270 OA
ATOM     13  H   UNL     1       6.809  -5.478   4.864  0.00  0.00    -0.086 HD
ATOM     14  H   UNL     1       7.977  -5.355   6.017  0.00  0.00    -0.086 HD
ENDROOT
BRANCH  11  15
ATOM     15  C   UNL     1       3.601  -4.766  10.721  0.00  0.00    +0.037 A 
ATOM     16  C   UNL     1       4.859  -4.166  10.647  0.00  0.00    +0.014 A 
ATOM     17  C   UNL     1       5.790  -4.398  11.638  0.00  0.00    +0.016 A 
ATOM     18  C   UNL     1       5.478  -5.225  12.705  0.00  0.00    +0.021 A 
ATOM     19  C   UNL     1       4.232  -5.823  12.783  0.00  0.00    -0.036 A 
ATOM     20  C   UNL     1       3.291  -5.594  11.801  0.00  0.00    +0.017 A 
ATOM     21  C   UNL     1       3.901  -6.722  13.947  0.00  0.00    +0.045 C 
ATOM     22 BR   UNL     1       6.760  -5.539  14.059  0.00  0.00    -0.050 Br
ENDBRANCH  11  15
BRANCH   1  24
ATOM     23  N   UNL     1       2.699  -3.691   3.648  0.00  0.00    -0.315 N 
ATOM     24  C   UNL     1       2.734  -3.241   4.918  0.00  0.00    +0.218 C 
ATOM     25  O   UNL     1       2.682  -2.050   5.141  0.00  0.00    -0.275 OA
ATOM     26  H   UNL     1       2.741  -4.644   3.470  0.00  0.00    +0.149 HD
BRANCH  23  27
ATOM     27  C   UNL     1       2.598  -2.742   2.537  0.00  0.00    +0.109 C 
BRANCH  27  28
ATOM     28  C   UNL     1       2.577  -3.507   1.213  0.00  0.00    +0.054 C 
BRANCH  28  34
ATOM     29  C   UNL     1      -0.218  -0.831  -1.961  0.00  0.00    +0.044 C 
ATOM     30  C   UNL     1       1.136  -1.250  -1.449  0.00  0.00    -0.050 A 
ATOM     31  C   UNL     1       2.283  -0.739  -2.028  0.00  0.00    +0.003 A 
ATOM     32  C   UNL     1       3.525  -1.124  -1.558  0.00  0.00    +0.001 A 
ATOM     33  C   UNL     1       3.620  -2.020  -0.509  0.00  0.00    +0.004 A 
ATOM     34  C   UNL     1       2.474  -2.530   0.070  0.00  0.00    -0.046 A 
ATOM     35  C   UNL     1       1.231  -2.142  -0.397  0.00  0.00    +0.007 A 
ENDBRANCH  28  34
ENDBRANCH  27  28
ENDBRANCH  23  27
ENDBRANCH   1  24
TORSDOF 5
