REMARK  Name = ZINC08918589
REMARK  8 active torsions:
REMARK  status: ('A' for Active; 'I' for Inactive)
REMARK    1  A    between atoms: C_1  and  C_2
REMARK    2  A    between atoms: C_3  and  C_12
REMARK    3  A    between atoms: N_10  and  C_11
REMARK    4  A    between atoms: C_12  and  C_14
REMARK    5  A    between atoms: C_14  and  O_15
REMARK    6  A    between atoms: O_15  and  C_16
REMARK    7  A    between atoms: C_20  and  O_22
REMARK    8  A    between atoms: C_26  and  C_38
REMARK                            x       y       z     vdW  Elec       q    Type
REMARK                         _______ _______ _______ _____ _____    ______ ____
ROOT
ATOM      1  C   UNL     1      -6.286   1.323   0.069  0.00  0.00    +0.125 A 
ATOM      2  C   UNL     1      -7.674   1.274   0.101  0.00  0.00    +0.054 A 
ATOM      3  C   UNL     1      -8.332   0.048   0.103  0.00  0.00    -0.004 A 
ATOM      4  C   UNL     1      -7.581  -1.148   0.006  0.00  0.00    +0.108 A 
ATOM      5  C   UNL     1      -6.185  -1.081   0.018  0.00  0.00    +0.135 A 
ATOM      6  C   UNL     1      -5.546   0.147   0.054  0.00  0.00    +0.092 A 
ATOM      7  C   UNL     1      -8.293  -2.419  -0.109  0.00  0.00    +0.344 C 
ATOM      8  O   UNL     1      -9.386  -2.417  -0.651  0.00  0.00    -0.245 OA
ATOM      9  O   UNL     1      -7.802  -3.593   0.308  0.00  0.00    -0.458 OA
ATOM     10  C   UNL     1      -8.645  -4.762   0.098  0.00  0.00    +0.174 C 
ATOM     11  C   UNL     1      -9.983  -4.581   0.811  0.00  0.00    +0.045 C 
ATOM     12  C   UNL     1     -11.128  -4.628  -0.202  0.00  0.00    +0.011 C 
ATOM     13  C   UNL     1     -12.435  -4.152   0.439  0.00  0.00    +0.074 C 
ATOM     14  C   UNL     1     -12.891  -2.884  -0.242  0.00  0.00    +0.133 C 
ATOM     15  O   UNL     1     -13.364  -2.917  -1.353  0.00  0.00    -0.297 OA
ATOM     16  C   UNL     1     -12.742  -1.578   0.500  0.00  0.00    +0.074 C 
ATOM     17  C   UNL     1     -12.543  -0.423  -0.475  0.00  0.00    +0.012 C 
ATOM     18  C   UNL     1     -12.094   0.813   0.309  0.00  0.00    +0.027 C 
ATOM     19  C   UNL     1     -10.604   1.005   0.118  0.00  0.00    -0.026 C 
ATOM     20  C   UNL     1      -9.792  -0.020   0.250  0.00  0.00    +0.005 C 
ATOM     21  C   UNL     1      -7.936  -6.002   0.650  0.00  0.00    +0.052 C 
ENDROOT
BRANCH   5  22
ATOM     22  O   UNL     1      -5.444  -2.219  -0.007  0.00  0.00    -0.506 OA
ATOM     23  H   UNL     1      -5.235  -2.571   0.869  0.00  0.00    +0.292 HD
ENDBRANCH   5  22
BRANCH   1  24
ATOM     24  O   UNL     1      -5.652   2.522   0.070  0.00  0.00    -0.484 OA
BRANCH  24  25
ATOM     25  C   UNL     1      -4.224   2.500   0.056  0.00  0.00    +0.308 C 
BRANCH  25  26
ATOM     26  C   UNL     1      -3.700   3.914   0.059  0.00  0.00    +0.202 C 
ATOM     27  O   UNL     1      -4.475   4.848   0.072  0.00  0.00    -0.288 OA
BRANCH  26  30
ATOM     28  C   UNL     1      -2.370   6.713   0.061  0.00  0.00    +0.064 C 
ATOM     29  C   UNL     1      -1.672   5.378   0.048  0.00  0.00    +0.027 A 
ATOM     30  C   UNL     1      -2.303   4.152   0.047  0.00  0.00    +0.049 A 
ATOM     31  C   UNL     1      -1.231   3.138   0.031  0.00  0.00    +0.011 A 
ATOM     32  C   UNL     1      -1.217   1.746   0.017  0.00  0.00    +0.011 A 
ATOM     33  C   UNL     1      -0.013   1.076   0.008  0.00  0.00    +0.001 A 
ATOM     34  C   UNL     1       1.181   1.783   0.000  0.00  0.00    +0.002 A 
ATOM     35  C   UNL     1       1.181   3.161   0.008  0.00  0.00    +0.026 A 
ATOM     36  C   UNL     1      -0.025   3.855   0.023  0.00  0.00    +0.050 A 
ATOM     37  N   UNL     1      -0.338   5.199   0.034  0.00  0.00    -0.346 N 
ATOM     38  C   UNL     1       0.648   6.284   0.031  0.00  0.00    +0.149 C 
ENDBRANCH  26  30
ENDBRANCH  25  26
ENDBRANCH  24  25
ENDBRANCH   1  24
TORSDOF 5
