REMARK  Name = ZINC12445012
REMARK  9 active torsions:
REMARK  status: ('A' for Active; 'I' for Inactive)
REMARK    1  A    between atoms: C_1  and  C_2
REMARK    2  A    between atoms: C_5  and  O_9
REMARK    3  A    between atoms: O_9  and  C_10
REMARK    4  A    between atoms: C_10  and  C_11
REMARK    5  A    between atoms: N_13  and  N_14
REMARK    6  A    between atoms: C_15  and  C_16
REMARK    7  A    between atoms: C_21  and  O_22
REMARK    8  A    between atoms: O_22  and  C_23
REMARK    9  A    between atoms: C_23  and  C_24
REMARK                            x       y       z     vdW  Elec       q    Type
REMARK                         _______ _______ _______ _____ _____    ______ ____
ROOT
ATOM      1  C   UNL     1      -6.011   1.599   0.039  0.00  0.00    +0.270 C 
ATOM      2  O   UNL     1      -6.022   2.812   0.046  0.00  0.00    -0.270 OA
ATOM      3  N   UNL     1      -4.837   0.936   0.030  0.00  0.00    -0.204 N 
ATOM      4  H   UNL     1      -4.828  -0.034   0.025  0.00  0.00    +0.177 HD
ENDROOT
BRANCH   3   5
ATOM      5  N   UNL     1      -3.630   1.648   0.028  0.00  0.00    -0.188 NA
ATOM      6  C   UNL     1      -2.500   1.010   0.019  0.00  0.00    +0.142 C 
BRANCH   6   7
ATOM      7  C   UNL     1      -1.231   1.759   0.017  0.00  0.00    +0.036 A 
ATOM      8  C   UNL     1      -0.013   1.076   0.008  0.00  0.00    +0.013 A 
ATOM      9  C   UNL     1       1.171   1.783   0.000  0.00  0.00    +0.001 A 
ATOM     10  C   UNL     1       1.158   3.167   0.007  0.00  0.00    +0.004 A 
ATOM     11  C   UNL     1      -0.041   3.854   0.023  0.00  0.00    +0.046 A 
ATOM     12  C   UNL     1      -1.240   3.160   0.030  0.00  0.00    +0.130 A 
BRANCH  12  13
ATOM     13  O   UNL     1      -2.418   3.835   0.045  0.00  0.00    -0.480 OA
BRANCH  13  14
ATOM     14  C   UNL     1      -2.349   5.262   0.052  0.00  0.00    +0.353 C 
BRANCH  14  15
ATOM     15  C   UNL     1      -3.743   5.833   0.069  0.00  0.00    +0.393 C 
ATOM     16  O   UNL     1      -4.699   5.093   0.074  0.00  0.00    -0.243 OA
ATOM     17  O   UNL     1      -3.924   7.163   0.077  0.00  0.00    -0.243 OA
ENDBRANCH  14  15
ENDBRANCH  13  14
ENDBRANCH  12  13
ENDBRANCH   6   7
ENDBRANCH   3   5
BRANCH   1  18
ATOM     18  C   UNL     1      -7.308   0.834   0.041  0.00  0.00    +0.326 C 
BRANCH  18  19
ATOM     19  O   UNL     1      -8.403   1.752   0.051  0.00  0.00    -0.480 OA
BRANCH  19  24
ATOM     20  C   UNL     1     -13.588  -0.452   0.064  0.00  0.00    +0.044 C 
ATOM     21  C   UNL     1     -12.202   0.138   0.061  0.00  0.00    -0.048 A 
ATOM     22  C   UNL     1     -11.561   0.402   1.257  0.00  0.00    +0.022 A 
ATOM     23  C   UNL     1     -10.289   0.942   1.257  0.00  0.00    +0.061 A 
ATOM     24  C   UNL     1      -9.654   1.221   0.054  0.00  0.00    +0.149 A 
ATOM     25  C   UNL     1     -10.302   0.961  -1.145  0.00  0.00    +0.061 A 
ATOM     26  C   UNL     1     -11.572   0.414  -1.139  0.00  0.00    +0.022 A 
ATOM     27 BR   UNL     1      -9.445   1.345  -2.786  0.00  0.00    -0.046 Br
ATOM     28 BR   UNL     1      -9.413   1.302   2.894  0.00  0.00    -0.046 Br
ENDBRANCH  19  24
ENDBRANCH  18  19
ENDBRANCH   1  18
TORSDOF 8
