REMARK  Name = ZINC24276536
REMARK  11 active torsions:
REMARK  status: ('A' for Active; 'I' for Inactive)
REMARK    1  A    between atoms: C_1  and  N_2
REMARK    2  A    between atoms: N_2  and  C_3
REMARK    3  A    between atoms: N_2  and  C_4
REMARK    4  A    between atoms: C_4  and  C_5
REMARK    5  A    between atoms: C_5  and  C_7
REMARK    6  A    between atoms: C_5  and  N_13
REMARK    7  A    between atoms: C_14  and  C_16
REMARK    8  A    between atoms: C_17  and  C_18
REMARK    9  A    between atoms: C_21  and  S_24
REMARK   10  A    between atoms: S_24  and  N_27
REMARK   11  A    between atoms: N_27  and  C_28
REMARK                            x       y       z     vdW  Elec       q    Type
REMARK                         _______ _______ _______ _____ _____    ______ ____
ROOT
ATOM      1  C   UNL     1       2.670   2.174   0.065  0.00  0.00    +0.068 C 
ATOM      2  C   UNL     1       1.357   1.871   0.107  0.00  0.00    +0.013 C 
ENDROOT
BRANCH   2   3
ATOM      3  C   UNL     1       0.353   2.910  -0.174  0.00  0.00    -0.025 A 
ATOM      4  C   UNL     1      -1.010   2.600  -0.131  0.00  0.00    +0.010 A 
ATOM      5  C   UNL     1      -1.945   3.577  -0.401  0.00  0.00    +0.029 A 
ATOM      6  C   UNL     1      -1.537   4.865  -0.702  0.00  0.00    +0.109 A 
ATOM      7  C   UNL     1      -0.190   5.180  -0.746  0.00  0.00    +0.029 A 
ATOM      8  C   UNL     1       0.756   4.212  -0.484  0.00  0.00    +0.010 A 
BRANCH   6   9
ATOM      9  S   UNL     1      -2.740   6.109  -1.038  0.00  0.00    +0.072 S 
ATOM     10  O   UNL     1      -3.940   5.697  -0.399  0.00  0.00    -0.150 OA
ATOM     11  O   UNL     1      -2.120   7.357  -0.763  0.00  0.00    -0.150 OA
BRANCH   9  12
ATOM     12  N   UNL     1      -3.035   6.076  -2.667  0.00  0.00    -0.215 N 
ATOM     13  H   UNL     1      -2.821   6.962  -3.283  0.00  0.00    +0.174 HD
BRANCH  12  14
ATOM     14  C   UNL     1      -3.557   4.923  -3.260  0.00  0.00    +0.066 A 
ATOM     15  C   UNL     1      -4.473   4.139  -2.570  0.00  0.00    +0.026 A 
ATOM     16  C   UNL     1      -4.991   3.003  -3.160  0.00  0.00    +0.002 A 
ATOM     17  C   UNL     1      -4.590   2.638  -4.433  0.00  0.00    +0.002 A 
ATOM     18  C   UNL     1      -3.674   3.412  -5.121  0.00  0.00    +0.022 A 
ATOM     19  C   UNL     1      -3.156   4.554  -4.538  0.00  0.00    +0.063 A 
ATOM     20 CL   UNL     1      -2.005   5.525  -5.402  0.00  0.00    -0.082 Cl
ENDBRANCH  12  14
ENDBRANCH   9  12
ENDBRANCH   6   9
ENDBRANCH   2   3
BRANCH   1  22
ATOM     21  N   UNL     1       4.982   1.443   0.302  0.00  0.00    -0.307 N 
ATOM     22  C   UNL     1       3.669   1.141   0.344  0.00  0.00    +0.237 C 
ATOM     23  O   UNL     1       3.314   0.008   0.614  0.00  0.00    -0.271 OA
ATOM     24  H   UNL     1       5.305   2.446  -0.015  0.00  0.00    +0.150 HD
BRANCH  21  25
ATOM     25  C   UNL     1       5.978   0.437   0.677  0.00  0.00    +0.087 C 
BRANCH  25  26
ATOM     26  C   UNL     1       7.147   1.113   1.346  0.00  0.00    -0.029 A 
ATOM     27  C   UNL     1       7.620   2.318   0.860  0.00  0.00    +0.005 A 
ATOM     28  C   UNL     1       8.689   2.940   1.476  0.00  0.00    +0.000 A 
ATOM     29  C   UNL     1       9.293   2.353   2.573  0.00  0.00    +0.000 A 
ATOM     30  C   UNL     1       8.823   1.146   3.056  0.00  0.00    +0.000 A 
ATOM     31  C   UNL     1       7.751   0.526   2.442  0.00  0.00    +0.005 A 
ENDBRANCH  25  26
BRANCH  25  32
ATOM     32  C   UNL     1       6.461  -0.295  -0.576  0.00  0.00    -0.052 C 
BRANCH  32  34
ATOM     33  C   UNL     1       5.659  -1.276  -2.639  0.00  0.00    -0.097 C 
ATOM     34  N   UNL     1       5.312  -0.903  -1.261  0.00  0.00    +0.377 N 
ATOM     35  C   UNL     1       4.807  -2.062  -0.513  0.00  0.00    -0.097 C 
ATOM     36  H   UNL     1       4.509  -0.153  -1.305  0.00  0.00    -0.083 HD
ENDBRANCH  32  34
ENDBRANCH  25  32
ENDBRANCH  21  25
ENDBRANCH   1  22
TORSDOF 9
