REMARK  Name = ZINC05881718
REMARK  5 active torsions:
REMARK  status: ('A' for Active; 'I' for Inactive)
REMARK    1  A    between atoms: C_1  and  C_2
REMARK    2  A    between atoms: C_3  and  C_9
REMARK    3  A    between atoms: C_12  and  C_14
REMARK    4  A    between atoms: N_16  and  C_17
REMARK    5  A    between atoms: C_18  and  C_26
REMARK                            x       y       z     vdW  Elec       q    Type
REMARK                         _______ _______ _______ _____ _____    ______ ____
ROOT
ATOM      1  C   UNL     1       1.634   4.435   0.010  0.00  0.00    +0.284 C 
ATOM      2  O   UNL     1       0.417   4.400   0.022  0.00  0.00    -0.266 OA
ATOM      3  N   UNL     1       2.341   3.288  -0.003  0.00  0.00    -0.273 N 
ATOM      4  H   UNL     1       3.311   3.316  -0.013  0.00  0.00    +0.156 HD
ENDROOT
BRANCH   3   5
ATOM      5  C   UNL     1       1.684   2.069  -0.003  0.00  0.00    +0.085 A 
ATOM      6  C   UNL     1       2.232   0.794  -0.015  0.00  0.00    +0.068 A 
ATOM      7  C   UNL     1       1.312  -0.332  -0.012  0.00  0.00    -0.023 A 
ATOM      8  C   UNL     1       0.002  -0.004   0.002  0.00  0.00    -0.004 A 
ATOM      9  S   UNL     1      -0.022   1.766   0.012  0.00  0.00    -0.077 S 
ATOM     10  C   UNL     1      -1.164  -0.944   0.007  0.00  0.00    +0.043 C 
ATOM     11  C   UNL     1      -0.661  -2.341  -0.384  0.00  0.00    +0.005 C 
ATOM     12  C   UNL     1       0.590  -2.663   0.440  0.00  0.00    +0.005 C 
ATOM     13  C   UNL     1       1.757  -1.789  -0.024  0.00  0.00    +0.037 C 
BRANCH   6  14
ATOM     14  C   UNL     1       3.683   0.590  -0.030  0.00  0.00    +0.244 C 
ATOM     15  O   UNL     1       4.276   0.510  -1.090  0.00  0.00    -0.270 OA
ATOM     16  N   UNL     1       4.362   0.490   1.130  0.00  0.00    -0.325 N 
ATOM     17  H   UNL     1       3.890   0.553   1.975  0.00  0.00    +0.145 HD
ATOM     18  H   UNL     1       5.322   0.355   1.120  0.00  0.00    +0.145 HD
ENDBRANCH   6  14
ENDBRANCH   3   5
BRANCH   1  22
ATOM     19  C   UNL     1       3.941   7.219   0.001  0.00  0.00    +0.136 A 
ATOM     20  C   UNL     1       2.764   7.910   0.017  0.00  0.00    +0.050 A 
ATOM     21  C   UNL     1       1.732   6.966   0.017  0.00  0.00    +0.055 A 
ATOM     22  C   UNL     1       2.329   5.724   0.010  0.00  0.00    +0.190 A 
ATOM     23  O   UNL     1       3.667   5.903  -0.003  0.00  0.00    -0.450 OA
BRANCH  19  26
ATOM     24  C   UNL     1       5.923   6.309   1.903  0.00  0.00    +0.046 C 
ATOM     25  C   UNL     1       6.256   7.387   0.904  0.00  0.00    -0.022 A 
ATOM     26  C   UNL     1       5.291   7.817  -0.009  0.00  0.00    +0.022 A 
ATOM     27  C   UNL     1       5.610   8.812  -0.935  0.00  0.00    +0.012 A 
ATOM     28  C   UNL     1       6.871   9.371  -0.936  0.00  0.00    +0.002 A 
ATOM     29  C   UNL     1       7.823   8.941  -0.029  0.00  0.00    +0.020 A 
ATOM     30  C   UNL     1       7.516   7.950   0.889  0.00  0.00    +0.045 A 
ATOM     31 CL   UNL     1       8.717   7.417   2.022  0.00  0.00    -0.083 Cl
ENDBRANCH  19  26
ENDBRANCH   1  22
TORSDOF 4
