REMARK  Name = ZINC62825384
REMARK  8 active torsions:
REMARK  status: ('A' for Active; 'I' for Inactive)
REMARK    1  A    between atoms: C_1  and  C_2
REMARK    2  A    between atoms: C_2  and  C_3
REMARK    3  A    between atoms: C_3  and  C_4
REMARK    4  A    between atoms: C_4  and  C_5
REMARK    5  A    between atoms: C_5  and  C_7
REMARK    6  A    between atoms: C_5  and  N_21
REMARK    7  A    between atoms: N_9  and  C_10
REMARK    8  A    between atoms: C_11  and  C_18
REMARK                            x       y       z     vdW  Elec       q    Type
REMARK                         _______ _______ _______ _____ _____    ______ ____
ROOT
ATOM      1  C   UNL     1       1.395  -3.962  -1.867  0.00  0.00    +0.203 C 
ATOM      2  O   UNL     1       0.372  -4.610  -1.950  0.00  0.00    -0.277 OA
ATOM      3  N   UNL     1       2.582  -4.590  -1.751  0.00  0.00    -0.285 N 
ATOM      4  H   UNL     1       3.405  -4.077  -1.765  0.00  0.00    +0.155 HD
ENDROOT
BRANCH   3   5
ATOM      5  C   UNL     1       2.627  -5.974  -1.612  0.00  0.00    +0.062 A 
ATOM      6  C   UNL     1       3.325  -6.554  -0.540  0.00  0.00    +0.086 A 
ATOM      7  C   UNL     1       3.362  -7.946  -0.412  0.00  0.00    +0.032 A 
ATOM      8  C   UNL     1       2.716  -8.738  -1.336  0.00  0.00    +0.020 A 
ATOM      9  C   UNL     1       2.028  -8.163  -2.393  0.00  0.00    +0.032 A 
ATOM     10  C   UNL     1       1.978  -6.790  -2.530  0.00  0.00    +0.041 A 
ATOM     11 BR   UNL     1       1.030  -6.019  -3.974  0.00  0.00    -0.048 Br
ATOM     12 BR   UNL     1       2.768 -10.621  -1.160  0.00  0.00    -0.050 Br
BRANCH   6  13
ATOM     13  C   UNL     1       4.013  -5.701   0.443  0.00  0.00    +0.388 C 
ATOM     14  O   UNL     1       4.704  -6.208   1.315  0.00  0.00    -0.241 OA
ATOM     15  O   UNL     1       3.893  -4.485   0.387  0.00  0.00    -0.241 OA
ENDBRANCH   6  13
ENDBRANCH   3   5
BRANCH   1  16
ATOM     16  C   UNL     1       1.337  -2.457  -1.893  0.00  0.00    +0.013 C 
BRANCH  16  17
ATOM     17  N   UNL     1       0.066  -2.025  -2.489  0.00  0.00    +0.386 N 
ATOM     18  H   UNL     1      -0.701  -2.382  -1.939  0.00  0.00    -0.089 HD
ATOM     19  H   UNL     1       0.028  -1.017  -2.506  0.00  0.00    -0.089 HD
ATOM     20  H   UNL     1      -0.001  -2.381  -3.431  0.00  0.00    -0.089 HD
ENDBRANCH  16  17
BRANCH  16  21
ATOM     21  C   UNL     1       1.440  -1.918  -0.464  0.00  0.00    -0.007 C 
BRANCH  21  22
ATOM     22  C   UNL     1       1.507  -0.390  -0.499  0.00  0.00    -0.001 C 
BRANCH  22  24
ATOM     23  C   UNL     1       1.677   1.677   0.894  0.00  0.00    +0.004 C 
ATOM     24  C   UNL     1       1.609   0.149   0.929  0.00  0.00    -0.003 C 
ENDBRANCH  22  24
ENDBRANCH  21  22
ENDBRANCH  16  21
ENDBRANCH   1  16
TORSDOF 7
