REMARK  Name = ZINC14156730
REMARK  8 active torsions:
REMARK  status: ('A' for Active; 'I' for Inactive)
REMARK    1  A    between atoms: C_1  and  C_2
REMARK    2  A    between atoms: C_5  and  N_9
REMARK    3  A    between atoms: N_9  and  C_10
REMARK    4  A    between atoms: C_10  and  N_12
REMARK    5  A    between atoms: N_14  and  C_15
REMARK    6  A    between atoms: C_15  and  C_16
REMARK    7  A    between atoms: C_26  and  C_31
REMARK    8  A    between atoms: C_28  and  C_30
REMARK                            x       y       z     vdW  Elec       q    Type
REMARK                         _______ _______ _______ _____ _____    ______ ____
ROOT
ATOM      1  N   UNL     1       1.592   5.266   1.789  0.00  0.00    -0.159 NA
ATOM      2  C   UNL     1       0.640   5.460   0.893  0.00  0.00    +0.196 C 
ATOM      3  N   UNL     1      -0.645   5.094   1.172  0.00  0.00    -0.353 N 
ATOM      4  N   UNL     1       0.942   6.028  -0.315  0.00  0.00    -0.297 N 
ATOM      5  C   UNL     1       1.398   5.236  -1.361  0.00  0.00    +0.231 A 
ATOM      6  N   UNL     1       1.435   3.921  -1.206  0.00  0.00    -0.217 NA
ATOM      7  C   UNL     1       1.858   3.138  -2.184  0.00  0.00    +0.044 A 
ATOM      8  C   UNL     1       2.276   3.709  -3.376  0.00  0.00    +0.046 A 
ATOM      9  C   UNL     1       2.229   5.088  -3.501  0.00  0.00    +0.044 A 
ATOM     10  N   UNL     1       1.790   5.814  -2.486  0.00  0.00    -0.217 NA
ATOM     11  C   UNL     1       2.673   5.754  -4.778  0.00  0.00    +0.066 C 
ATOM     12  C   UNL     1       1.891   1.642  -2.002  0.00  0.00    +0.066 C 
ATOM     13  H   UNL     1      -1.039   5.203   2.194  0.00  0.00    +0.163 HD
ATOM     14  H   UNL     1       0.824   7.113  -0.458  0.00  0.00    +0.171 HD
ENDROOT
BRANCH   1  15
ATOM     15  C   UNL     1       2.823   5.752   1.575  0.00  0.00    +0.162 C 
ATOM     16  S   UNL     1       3.069   7.443   1.475  0.00  0.00    -0.016 S 
BRANCH  15  17
ATOM     17  N   UNL     1       3.866   4.910   1.440  0.00  0.00    -0.294 N 
ATOM     18  H   UNL     1       3.709   3.823   1.513  0.00  0.00    +0.154 HD
BRANCH  17  23
ATOM     19  C   UNL     1       9.068   6.967   0.492  0.00  0.00    +0.044 C 
ATOM     20  C   UNL     1       7.686   6.420   0.743  0.00  0.00    -0.049 A 
ATOM     21  C   UNL     1       6.950   6.874   1.823  0.00  0.00    +0.005 A 
ATOM     22  C   UNL     1       5.684   6.375   2.056  0.00  0.00    +0.025 A 
ATOM     23  C   UNL     1       5.149   5.417   1.206  0.00  0.00    +0.051 A 
ATOM     24  C   UNL     1       5.893   4.958   0.125  0.00  0.00    +0.062 A 
ATOM     25  C   UNL     1       7.157   5.466  -0.106  0.00  0.00    +0.025 A 
ATOM     26 CL   UNL     1       5.232   3.755  -0.937  0.00  0.00    -0.082 Cl
ENDBRANCH  17  23
ENDBRANCH  15  17
ENDBRANCH   1  15
BRANCH   3  27
ATOM     27  C   UNL     1      -1.501   4.556   0.112  0.00  0.00    +0.151 C 
BRANCH  27  28
ATOM     28  C   UNL     1      -2.156   5.692  -0.631  0.00  0.00    -0.028 A 
ATOM     29  C   UNL     1      -1.492   6.309  -1.674  0.00  0.00    +0.007 A 
ATOM     30  C   UNL     1      -2.092   7.351  -2.356  0.00  0.00    +0.020 A 
ATOM     31  C   UNL     1      -3.358   7.776  -1.994  0.00  0.00    +0.041 A 
ATOM     32  C   UNL     1      -4.022   7.158  -0.949  0.00  0.00    +0.020 A 
ATOM     33  C   UNL     1      -3.421   6.117  -0.268  0.00  0.00    +0.007 A 
ATOM     34 CL   UNL     1      -4.112   9.085  -2.849  0.00  0.00    -0.084 Cl
ENDBRANCH  27  28
ENDBRANCH   3  27
TORSDOF 5
