REMARK  Name = ZINC40383061
REMARK  6 active torsions:
REMARK  status: ('A' for Active; 'I' for Inactive)
REMARK    1  A    between atoms: C_1  and  C_2
REMARK    2  A    between atoms: C_5  and  N_9
REMARK    3  A    between atoms: C_6  and  C_8
REMARK    4  A    between atoms: C_10  and  C_12
REMARK    5  A    between atoms: C_27  and  C_35
REMARK    6  A    between atoms: C_32  and  C_34
REMARK                            x       y       z     vdW  Elec       q    Type
REMARK                         _______ _______ _______ _____ _____    ______ ____
ROOT
ATOM      1  C   UNL     1      -0.120  -6.369  -1.180  0.00  0.00    +0.122 C 
ATOM      2  C   UNL     1       1.127  -6.964  -0.523  0.00  0.00    +0.114 C 
ATOM      3  C   UNL     1       2.309  -6.801  -1.443  0.00  0.00    +0.219 C 
ATOM      4  O   UNL     1       3.401  -6.552  -0.978  0.00  0.00    -0.275 OA
ATOM      5  N   UNL     1       2.167  -6.930  -2.773  0.00  0.00    -0.270 N 
ATOM      6  C   UNL     1       0.917  -7.110  -3.340  0.00  0.00    +0.138 A 
ATOM      7  C   UNL     1      -0.224  -6.859  -2.599  0.00  0.00    +0.069 A 
ATOM      8  C   UNL     1      -1.476  -7.068  -3.186  0.00  0.00    +0.258 A 
ATOM      9  O   UNL     1      -2.502  -6.867  -2.555  0.00  0.00    -0.267 OA
ATOM     10  N   UNL     1      -1.527  -7.496  -4.466  0.00  0.00    -0.295 N 
ATOM     11  H   UNL     1      -2.385  -7.662  -4.888  0.00  0.00    +0.172 HD
ATOM     12  C   UNL     1      -0.376  -7.694  -5.164  0.00  0.00    +0.200 A 
ATOM     13  N   UNL     1       0.803  -7.502  -4.614  0.00  0.00    -0.200 NA
ATOM     14  N   UNL     1      -0.447  -8.103  -6.469  0.00  0.00    -0.295 N 
ATOM     15  C   UNL     1      -0.579  -9.529  -6.801  0.00  0.00    +0.073 C 
ATOM     16  C   UNL     1       0.533  -9.912  -7.782  0.00  0.00    +0.022 C 
ATOM     17  C   UNL     1       0.483  -8.977  -8.993  0.00  0.00    +0.004 C 
ATOM     18  C   UNL     1       0.716  -7.535  -8.537  0.00  0.00    +0.022 C 
ATOM     19  C   UNL     1      -0.400  -7.125  -7.564  0.00  0.00    +0.073 C 
ATOM     20  C   UNL     1      -0.103  -5.735  -6.997  0.00  0.00    +0.028 C 
ATOM     21  C   UNL     1      -0.453 -10.366  -5.526  0.00  0.00    +0.028 C 
ATOM     22  H   UNL     1       2.950  -6.896  -3.343  0.00  0.00    +0.156 HD
ENDROOT
BRANCH   1  24
ATOM     23  N   UNL     1       0.081  -4.200  -0.006  0.00  0.00    -0.285 N 
ATOM     24  C   UNL     1      -0.021  -4.865  -1.174  0.00  0.00    +0.225 C 
ATOM     25  O   UNL     1      -0.034  -4.253  -2.221  0.00  0.00    -0.275 OA
ATOM     26  H   UNL     1       0.156  -4.692   0.827  0.00  0.00    +0.155 HD
BRANCH  23  31
ATOM     27  C   UNL     1       0.070   1.472   0.040  0.00  0.00    +0.044 C 
ATOM     28  C   UNL     1       0.073  -0.035   0.027  0.00  0.00    -0.050 A 
ATOM     29  C   UNL     1       0.667  -0.715  -1.020  0.00  0.00    +0.005 A 
ATOM     30  C   UNL     1       0.671  -2.096  -1.034  0.00  0.00    +0.024 A 
ATOM     31  C   UNL     1       0.079  -2.801   0.005  0.00  0.00    +0.036 A 
ATOM     32  C   UNL     1      -0.517  -2.115   1.055  0.00  0.00    -0.029 A 
ATOM     33  C   UNL     1      -0.514  -0.734   1.066  0.00  0.00    +0.008 A 
ATOM     34  C   UNL     1      -1.161  -2.877   2.185  0.00  0.00    +0.045 C 
ENDBRANCH  23  31
ENDBRANCH   1  24
TORSDOF 2
