REMARK  Name = ZINC26962612
REMARK  7 active torsions:
REMARK  status: ('A' for Active; 'I' for Inactive)
REMARK    1  A    between atoms: C_4  and  C_14
REMARK    2  A    between atoms: N_6  and  C_10
REMARK    3  A    between atoms: C_10  and  C_11
REMARK    4  A    between atoms: C_11  and  C_12
REMARK    5  A    between atoms: C_12  and  O_13
REMARK    6  A    between atoms: C_15  and  C_21
REMARK    7  A    between atoms: C_24  and  C_27
REMARK                            x       y       z     vdW  Elec       q    Type
REMARK                         _______ _______ _______ _____ _____    ______ ____
ROOT
ATOM      1  C   UNL     1       0.914  -3.330  -0.059  0.00  0.00    +0.060 C 
ATOM      2  C   UNL     1       0.551  -4.087   1.048  0.00  0.00    +0.077 C 
ATOM      3  C   UNL     1      -0.493  -5.018   0.586  0.00  0.00    +0.253 C 
ATOM      4  O   UNL     1      -1.060  -5.843   1.274  0.00  0.00    -0.270 OA
ATOM      5  N   UNL     1      -0.718  -4.804  -0.721  0.00  0.00    -0.248 N 
ATOM      6  C   UNL     1       0.070  -3.816  -1.180  0.00  0.00    +0.252 C 
ATOM      7  O   UNL     1       0.090  -3.395  -2.319  0.00  0.00    -0.270 OA
ATOM      8  H   UNL     1      -1.465  -5.407  -1.257  0.00  0.00    +0.158 HD
ENDROOT
BRANCH   1  12
ATOM      9  C   UNL     1       0.675   1.349  -0.267  0.00  0.00    +0.020 A 
ATOM     10  C   UNL     1       0.521  -0.026  -0.206  0.00  0.00    +0.013 A 
ATOM     11  C   UNL     1       1.670  -0.813  -0.173  0.00  0.00    +0.027 A 
ATOM     12  C   UNL     1       1.920  -2.264  -0.109  0.00  0.00    +0.015 A 
ATOM     13  C   UNL     1       3.291  -2.417  -0.105  0.00  0.00    +0.097 A 
ATOM     14  N   UNL     1       3.882  -1.198  -0.161  0.00  0.00    -0.331 N 
ATOM     15  C   UNL     1       2.934  -0.199  -0.203  0.00  0.00    +0.141 A 
ATOM     16  N   UNL     1       3.022   1.124  -0.263  0.00  0.00    -0.237 NA
ATOM     17  C   UNL     1       1.950   1.888  -0.294  0.00  0.00    +0.113 A 
BRANCH  14  18
ATOM     18  C   UNL     1       5.330  -0.973  -0.173  0.00  0.00    +0.125 C 
BRANCH  18  19
ATOM     19  C   UNL     1       5.817  -0.708   1.252  0.00  0.00    +0.049 C 
BRANCH  19  20
ATOM     20  C   UNL     1       7.329  -0.474   1.239  0.00  0.00    +0.157 C 
BRANCH  20  21
ATOM     21  O   UNL     1       7.785  -0.225   2.571  0.00  0.00    -0.395 OA
ATOM     22  H   UNL     1       8.851  -0.034   2.761  0.00  0.00    +0.209 HD
ENDBRANCH  20  21
ENDBRANCH  19  20
ENDBRANCH  18  19
ENDBRANCH  14  18
ENDBRANCH   1  12
BRANCH   2  23
ATOM     23  C   UNL     1       1.102  -3.980   2.413  0.00  0.00    +0.095 A 
ATOM     24  C   UNL     1       1.781  -5.066   2.975  0.00  0.00    +0.068 A 
ATOM     25  C   UNL     1       2.292  -4.949   4.256  0.00  0.00    +0.036 A 
ATOM     26  C   UNL     1       2.109  -3.753   4.936  0.00  0.00    +0.074 A 
ATOM     27  C   UNL     1       1.427  -2.718   4.321  0.00  0.00    +0.124 A 
ATOM     28  N   UNL     1       0.954  -2.851   3.099  0.00  0.00    -0.253 NA
ATOM     29 CL   UNL     1       1.982  -6.539   2.078  0.00  0.00    -0.081 Cl
BRANCH  26  30
ATOM     30  C   UNL     1       2.648  -3.582   6.333  0.00  0.00    +0.419 C 
ATOM     31  F   UNL     1       3.950  -3.075   6.272  0.00  0.00    -0.166 F 
ATOM     32  F   UNL     1       1.834  -2.692   7.042  0.00  0.00    -0.166 F 
ATOM     33  F   UNL     1       2.660  -4.821   6.982  0.00  0.00    -0.166 F 
ENDBRANCH  26  30
ENDBRANCH   2  23
TORSDOF 7
