REMARK  Name = ZINC66644161
REMARK  8 active torsions:
REMARK  status: ('A' for Active; 'I' for Inactive)
REMARK    1  A    between atoms: C_1  and  C_2
REMARK    2  A    between atoms: C_2  and  C_3
REMARK    3  A    between atoms: N_5  and  C_6
REMARK    4  A    between atoms: C_6  and  C_8
REMARK    5  A    between atoms: C_6  and  C_14
REMARK    6  A    between atoms: N_16  and  C_17
REMARK    7  A    between atoms: C_17  and  C_18
REMARK    8  A    between atoms: C_18  and  C_23
REMARK                            x       y       z     vdW  Elec       q    Type
REMARK                         _______ _______ _______ _____ _____    ______ ____
ROOT
ATOM      1  C   UNL     1      -3.449  -3.614   0.012  0.00  0.00    +0.238 C 
ATOM      2  O   UNL     1      -2.328  -3.972   0.306  0.00  0.00    -0.273 OA
ATOM      3  N   UNL     1      -4.509  -4.377   0.346  0.00  0.00    -0.313 N 
ATOM      4  H   UNL     1      -5.406  -4.091   0.111  0.00  0.00    +0.149 HD
ENDROOT
BRANCH   1   5
ATOM      5  C   UNL     1      -3.657  -2.318  -0.728  0.00  0.00    +0.189 C 
BRANCH   5   6
ATOM      6  C   UNL     1      -4.337  -2.593  -2.044  0.00  0.00    -0.018 A 
ATOM      7  C   UNL     1      -3.600  -3.055  -3.119  0.00  0.00    +0.006 A 
ATOM      8  C   UNL     1      -4.223  -3.308  -4.327  0.00  0.00    +0.000 A 
ATOM      9  C   UNL     1      -5.583  -3.100  -4.459  0.00  0.00    +0.000 A 
ATOM     10  C   UNL     1      -6.320  -2.639  -3.384  0.00  0.00    +0.000 A 
ATOM     11  C   UNL     1      -5.697  -2.390  -2.175  0.00  0.00    +0.006 A 
ENDBRANCH   5   6
BRANCH   5  14
ATOM     12  C   UNL     1      -2.285  -0.347  -1.142  0.00  0.00    +0.214 C 
ATOM     13  O   UNL     1      -3.292   0.328  -1.094  0.00  0.00    -0.276 OA
ATOM     14  N   UNL     1      -2.360  -1.681  -0.972  0.00  0.00    -0.300 N 
ATOM     15  H   UNL     1      -1.555  -2.221  -1.010  0.00  0.00    +0.150 HD
BRANCH  12  17
ATOM     16  C   UNL     1      -1.145   1.817  -1.550  0.00  0.00    +0.013 C 
ATOM     17  C   UNL     1      -0.951   0.308  -1.393  0.00  0.00    +0.092 C 
ENDBRANCH  12  17
ENDBRANCH   5  14
ENDBRANCH   1   5
BRANCH   3  18
ATOM     18  C   UNL     1      -4.307  -5.637   1.065  0.00  0.00    +0.116 C 
BRANCH  18  19
ATOM     19  C   UNL     1      -5.666  -6.242   1.426  0.00  0.00    +0.017 C 
ATOM     20  C   UNL     1      -5.469  -7.550   2.211  0.00  0.00    +0.013 C 
ATOM     21  C   UNL     1      -6.128  -8.668   1.377  0.00  0.00    +0.001 C 
ATOM     22  C   UNL     1      -6.129  -8.113  -0.069  0.00  0.00    +0.001 C 
ATOM     23  C   UNL     1      -6.438  -6.609   0.142  0.00  0.00    +0.013 C 
BRANCH  19  24
ATOM     24  C   UNL     1      -6.465  -5.262   2.246  0.00  0.00    -0.003 A 
ATOM     25  C   UNL     1      -6.210  -4.781   3.487  0.00  0.00    +0.012 A 
ATOM     26  C   UNL     1      -7.093  -3.878   4.051  0.00  0.00    +0.008 A 
ATOM     27  C   UNL     1      -8.187  -3.501   3.345  0.00  0.00    +0.045 A 
ATOM     28  S   UNL     1      -7.988  -4.428   1.832  0.00  0.00    -0.101 S 
ENDBRANCH  19  24
ENDBRANCH  18  19
ENDBRANCH   3  18
TORSDOF 7
