REMARK  Name = ZINC19363580
REMARK  8 active torsions:
REMARK  status: ('A' for Active; 'I' for Inactive)
REMARK    1  A    between atoms: C_1  and  N_2
REMARK    2  A    between atoms: C_9  and  O_32
REMARK    3  A    between atoms: C_11  and  C_13
REMARK    4  A    between atoms: C_13  and  N_14
REMARK    5  A    between atoms: N_14  and  C_15
REMARK    6  A    between atoms: N_21  and  C_24
REMARK    7  A    between atoms: C_24  and  C_25
REMARK    8  A    between atoms: O_32  and  C_33
REMARK                            x       y       z     vdW  Elec       q    Type
REMARK                         _______ _______ _______ _____ _____    ______ ____
ROOT
ATOM      1  N   UNL     1       2.064   1.437   1.007  0.00  0.00    -0.347 N 
ATOM      2  H   UNL     1       1.207   1.882   0.923  0.00  0.00    +0.146 HD
ENDROOT
BRANCH   1   3
ATOM      3  C   UNL     1       3.191   2.164   1.144  0.00  0.00    +0.086 C 
ATOM      4  C   UNL     1       3.115   3.537   1.280  0.00  0.00    +0.113 C 
ATOM      5  C   UNL     1       1.821   4.225   1.433  0.00  0.00    +0.256 C 
ATOM      6  O   UNL     1       0.778   3.598   1.444  0.00  0.00    -0.270 OA
ATOM      7  N   UNL     1       1.823   5.568   1.562  0.00  0.00    -0.263 N 
ATOM      8  C   UNL     1       2.964   6.270   1.552  0.00  0.00    +0.146 C 
ATOM      9  N   UNL     1       4.175   5.712   1.416  0.00  0.00    -0.245 N 
ATOM     10  C   UNL     1       4.326   4.378   1.285  0.00  0.00    +0.259 C 
ATOM     11  O   UNL     1       5.431   3.882   1.168  0.00  0.00    -0.269 OA
ATOM     12  S   UNL     1       2.870   7.971   1.720  0.00  0.00    -0.018 S 
ATOM     13  H   UNL     1       0.979   6.035   1.663  0.00  0.00    +0.157 HD
BRANCH   9  14
ATOM     14  C   UNL     1       5.363   6.570   1.417  0.00  0.00    +0.150 C 
BRANCH  14  15
ATOM     15  C   UNL     1       5.866   6.730   2.828  0.00  0.00    -0.030 A 
ATOM     16  C   UNL     1       5.397   7.764   3.616  0.00  0.00    +0.005 A 
ATOM     17  C   UNL     1       5.858   7.911   4.911  0.00  0.00    +0.000 A 
ATOM     18  C   UNL     1       6.789   7.023   5.418  0.00  0.00    +0.000 A 
ATOM     19  C   UNL     1       7.258   5.989   4.630  0.00  0.00    +0.000 A 
ATOM     20  C   UNL     1       6.793   5.839   3.337  0.00  0.00    +0.005 A 
ENDBRANCH  14  15
ENDBRANCH   9  14
ENDBRANCH   1   3
BRANCH   1  21
ATOM     21  C   UNL     1       2.135  -0.026   0.986  0.00  0.00    +0.124 C 
BRANCH  21  32
ATOM     22  C   UNL     1       0.583  -0.663   3.361  0.00  0.00    +0.105 C 
ATOM     23  N   UNL     1      -0.023  -0.148   2.126  0.00  0.00    -0.297 NA
ATOM     24  C   UNL     1      -1.436  -0.546   2.026  0.00  0.00    +0.089 C 
ATOM     25  C   UNL     1      -2.104   0.301   0.943  0.00  0.00    +0.051 C 
ATOM     26  C   UNL     1      -1.283   0.262  -0.321  0.00  0.00    -0.034 A 
ATOM     27  C   UNL     1      -1.881   0.656  -1.508  0.00  0.00    +0.053 A 
ATOM     28  C   UNL     1      -1.167   0.641  -2.694  0.00  0.00    +0.170 A 
ATOM     29  C   UNL     1       0.162   0.226  -2.693  0.00  0.00    +0.208 A 
ATOM     30  C   UNL     1       0.756  -0.169  -1.504  0.00  0.00    +0.170 A 
ATOM     31  C   UNL     1       0.032  -0.154  -0.316  0.00  0.00    +0.020 A 
ATOM     32  C   UNL     1       0.719  -0.605   0.947  0.00  0.00    +0.107 C 
ATOM     33  O   UNL     1       0.643   0.301  -3.969  0.00  0.00    -0.449 OA
ATOM     34  C   UNL     1      -0.520   0.373  -4.815  0.00  0.00    +0.467 C 
ATOM     35  O   UNL     1      -1.519   0.974  -3.970  0.00  0.00    -0.452 OA
BRANCH  30  36
ATOM     36  O   UNL     1       2.055  -0.575  -1.499  0.00  0.00    -0.491 OA
ATOM     37  C   UNL     1       2.308  -1.943  -1.824  0.00  0.00    +0.277 C 
ENDBRANCH  30  36
ENDBRANCH  21  32
ENDBRANCH   1  21
TORSDOF 6
