REMARK  Name = ZINC35019289
REMARK  8 active torsions:
REMARK  status: ('A' for Active; 'I' for Inactive)
REMARK    1  A    between atoms: C_1  and  C_2
REMARK    2  A    between atoms: C_2  and  C_4
REMARK    3  A    between atoms: C_2  and  N_10
REMARK    4  A    between atoms: N_10  and  C_11
REMARK    5  A    between atoms: C_11  and  C_13
REMARK    6  A    between atoms: C_11  and  C_14
REMARK    7  A    between atoms: C_17  and  S_20
REMARK    8  A    between atoms: S_20  and  N_23
REMARK                            x       y       z     vdW  Elec       q    Type
REMARK                         _______ _______ _______ _____ _____    ______ ____
ROOT
ATOM      1  C   UNL     1       0.014   0.127  -2.393  0.00  0.00    -0.043 C 
ATOM      2  C   UNL     1       0.100   1.654  -2.441  0.00  0.00    -0.009 C 
ENDROOT
BRANCH   1   3
ATOM      3  C   UNL     1       0.613  -0.450  -3.650  0.00  0.00    -0.062 A 
ATOM      4  C   UNL     1       1.985  -0.571  -3.769  0.00  0.00    +0.004 A 
ATOM      5  C   UNL     1       2.534  -1.100  -4.922  0.00  0.00    +0.029 A 
ATOM      6  C   UNL     1       1.712  -1.508  -5.955  0.00  0.00    +0.105 A 
ATOM      7  C   UNL     1       0.340  -1.388  -5.836  0.00  0.00    +0.029 A 
ATOM      8  C   UNL     1      -0.210  -0.863  -4.681  0.00  0.00    +0.004 A 
BRANCH   6   9
ATOM      9  S   UNL     1       2.413  -2.181  -7.426  0.00  0.00    +0.056 S 
ATOM     10  O   UNL     1       1.458  -1.982  -8.459  0.00  0.00    -0.153 OA
ATOM     11  O   UNL     1       3.740  -1.682  -7.508  0.00  0.00    -0.153 OA
BRANCH   9  12
ATOM     12  N   UNL     1       2.535  -3.818  -7.204  0.00  0.00    -0.204 NA
ATOM     13  H   UNL     1       2.473  -4.416  -7.965  0.00  0.00    +0.144 HD
ATOM     14  H   UNL     1       2.670  -4.178  -6.314  0.00  0.00    +0.144 HD
ENDBRANCH   9  12
ENDBRANCH   6   9
ENDBRANCH   1   3
BRANCH   1  15
ATOM     15  N   UNL     1       0.754  -0.369  -1.226  0.00  0.00    +0.388 N 
ATOM     16  H   UNL     1       1.695  -0.004  -1.244  0.00  0.00    -0.084 HD
ATOM     17  H   UNL     1       0.784  -1.377  -1.250  0.00  0.00    -0.084 HD
BRANCH  15  19
ATOM     18  C   UNL     1       0.924  -0.328   1.217  0.00  0.00    -0.009 C 
ATOM     19  C   UNL     1       0.082   0.071   0.004  0.00  0.00    -0.043 C 
BRANCH  19  20
ATOM     20  C   UNL     1      -1.274  -0.582   0.097  0.00  0.00    -0.062 A 
ATOM     21  C   UNL     1      -1.429  -1.906  -0.268  0.00  0.00    +0.002 A 
ATOM     22  C   UNL     1      -2.672  -2.505  -0.183  0.00  0.00    +0.000 A 
ATOM     23  C   UNL     1      -3.760  -1.779   0.267  0.00  0.00    +0.000 A 
ATOM     24  C   UNL     1      -3.604  -0.455   0.632  0.00  0.00    +0.000 A 
ATOM     25  C   UNL     1      -2.360   0.142   0.551  0.00  0.00    +0.002 A 
ENDBRANCH  19  20
ENDBRANCH  15  19
ENDBRANCH   1  15
TORSDOF 6
