REMARK  Name = ZINC38199238
REMARK  9 active torsions:
REMARK  status: ('A' for Active; 'I' for Inactive)
REMARK    1  A    between atoms: C_1  and  C_2
REMARK    2  A    between atoms: C_5  and  O_27
REMARK    3  A    between atoms: C_6  and  O_25
REMARK    4  A    between atoms: C_17  and  C_23
REMARK    5  A    between atoms: C_17  and  C_24
REMARK    6  A    between atoms: C_19  and  C_21
REMARK    7  A    between atoms: C_19  and  C_22
REMARK    8  A    between atoms: O_25  and  C_26
REMARK    9  A    between atoms: O_27  and  C_28
REMARK                            x       y       z     vdW  Elec       q    Type
REMARK                         _______ _______ _______ _____ _____    ______ ____
ROOT
ATOM      1  C   UNL     1      -0.019   1.526   0.010  0.00  0.00    +0.041 C 
ATOM      2  C   UNL     1       0.002  -0.004   0.002  0.00  0.00    +0.103 C 
ATOM      3  C   UNL     1      -1.389  -0.576   0.035  0.00  0.00    -0.013 A 
ATOM      4  C   UNL     1      -2.165  -0.489  -1.112  0.00  0.00    +0.055 A 
ATOM      5  C   UNL     1      -3.446  -1.011  -1.146  0.00  0.00    +0.162 A 
ATOM      6  C   UNL     1      -3.964  -1.618  -0.006  0.00  0.00    +0.162 A 
ATOM      7  C   UNL     1      -3.199  -1.681   1.139  0.00  0.00    +0.053 A 
ATOM      8  C   UNL     1      -1.908  -1.152   1.175  0.00  0.00    -0.037 A 
ATOM      9  C   UNL     1      -1.194  -1.247   2.488  0.00  0.00    +0.054 C 
ATOM     10  C   UNL     1       0.193  -0.645   2.514  0.00  0.00    +0.117 C 
ATOM     11  N   UNL     1       0.742  -0.531   1.172  0.00  0.00    -0.254 N 
ATOM     12  C   UNL     1       1.976  -0.867   0.754  0.00  0.00    +0.404 C 
ATOM     13  O   UNL     1       2.829  -1.346   1.469  0.00  0.00    -0.226 OA
ATOM     14  O   UNL     1       2.149  -0.609  -0.559  0.00  0.00    -0.441 OA
ATOM     15  C   UNL     1       0.836  -0.589  -1.154  0.00  0.00    +0.138 C 
ATOM     16  C   UNL     1       0.809   0.287  -2.389  0.00  0.00    +0.038 C 
ATOM     17  C   UNL     1       1.623  -0.332  -3.527  0.00  0.00    -0.070 C 
ATOM     18  N   UNL     1       1.306  -1.727  -3.767  0.00  0.00    +0.386 N 
ATOM     19  C   UNL     1       1.168  -2.611  -2.623  0.00  0.00    -0.070 C 
ATOM     20  C   UNL     1       0.370  -1.998  -1.478  0.00  0.00    +0.038 C 
ATOM     21  C   UNL     1       2.530  -3.099  -2.123  0.00  0.00    -0.010 C 
ATOM     22  C   UNL     1       0.392  -3.864  -3.100  0.00  0.00    -0.010 C 
ATOM     23  C   UNL     1       3.119  -0.125  -3.280  0.00  0.00    -0.010 C 
ATOM     24  C   UNL     1       1.269   0.453  -4.814  0.00  0.00    -0.010 C 
ATOM     25  H   UNL     1       0.440  -1.771  -4.314  0.00  0.00    -0.084 HD
ATOM     26  H   UNL     1       2.024  -2.116  -4.387  0.00  0.00    -0.084 HD
ENDROOT
BRANCH   6  27
ATOM     27  O   UNL     1      -5.216  -2.147  -0.022  0.00  0.00    -0.491 OA
ATOM     28  C   UNL     1      -5.679  -2.755   1.185  0.00  0.00    +0.277 C 
ENDBRANCH   6  27
BRANCH   5  29
ATOM     29  O   UNL     1      -4.191  -0.932  -2.281  0.00  0.00    -0.491 OA
ATOM     30  C   UNL     1      -3.588  -0.294  -3.410  0.00  0.00    +0.277 C 
ENDBRANCH   5  29
TORSDOF 2
