REMARK  Name = ZINC04481947
REMARK  4 active torsions:
REMARK  status: ('A' for Active; 'I' for Inactive)
REMARK    1  A    between atoms: C_8  and  C_10
REMARK    2  A    between atoms: C_8  and  N_35
REMARK    3  A    between atoms: C_14  and  C_23
REMARK    4  A    between atoms: C_14  and  N_35
REMARK                            x       y       z     vdW  Elec       q    Type
REMARK                         _______ _______ _______ _____ _____    ______ ____
ROOT
ATOM      1  N   UNL     1      -2.102   1.735   1.216  0.00  0.00    +0.481 N 
ATOM      2  H   UNL     1      -2.134   2.446   0.475  0.00  0.00    -0.059 HD
ATOM      3  H   UNL     1      -2.498   0.856   0.864  0.00  0.00    -0.059 HD
ENDROOT
BRANCH   1  11
ATOM      4  C   UNL     1       0.156   4.588   4.757  0.00  0.00    +0.004 A 
ATOM      5  C   UNL     1      -0.357   5.615   3.986  0.00  0.00    +0.004 A 
ATOM      6  C   UNL     1      -1.430   5.382   3.146  0.00  0.00    +0.049 A 
ATOM      7  C   UNL     1      -1.994   4.118   3.075  0.00  0.00    +0.165 A 
ATOM      8  C   UNL     1      -1.476   3.084   3.852  0.00  0.00    +0.165 A 
ATOM      9  C   UNL     1      -0.401   3.325   4.692  0.00  0.00    +0.049 A 
ATOM     10  O   UNL     1      -2.196   1.951   3.605  0.00  0.00    -0.453 OA
ATOM     11  C   UNL     1      -2.894   2.199   2.370  0.00  0.00    +0.332 C 
ATOM     12  O   UNL     1      -3.040   3.631   2.339  0.00  0.00    -0.453 OA
BRANCH  11  13
ATOM     13  C   UNL     1      -4.264   1.519   2.381  0.00  0.00    +0.450 C 
ATOM     14  F   UNL     1      -4.096   0.133   2.475  0.00  0.00    -0.165 F 
ATOM     15  F   UNL     1      -5.003   1.974   3.478  0.00  0.00    -0.165 F 
ATOM     16  F   UNL     1      -4.946   1.827   1.199  0.00  0.00    -0.165 F 
ENDBRANCH  11  13
ENDBRANCH   1  11
BRANCH   1  17
ATOM     17  C   UNL     1      -0.699   1.511   1.614  0.00  0.00    +0.281 C 
ATOM     18  O   UNL     1       0.133   1.354   0.449  0.00  0.00    -0.457 OA
ATOM     19  C   UNL     1       0.587   2.607   0.154  0.00  0.00    +0.165 A 
ATOM     20  C   UNL     1       1.150   3.132  -0.998  0.00  0.00    +0.049 A 
ATOM     21  C   UNL     1       1.531   4.461  -1.038  0.00  0.00    +0.004 A 
ATOM     22  C   UNL     1       1.351   5.268   0.070  0.00  0.00    +0.004 A 
ATOM     23  C   UNL     1       0.790   4.751   1.222  0.00  0.00    +0.049 A 
ATOM     24  C   UNL     1       0.406   3.421   1.270  0.00  0.00    +0.165 A 
ATOM     25  O   UNL     1      -0.160   2.677   2.264  0.00  0.00    -0.457 OA
BRANCH  17  26
ATOM     26  C   UNL     1      -0.586   0.287   2.525  0.00  0.00    +0.250 C 
ATOM     27 CL   UNL     1      -0.420   0.825   4.237  0.00  0.00    -0.078 Cl
ATOM     28 CL   UNL     1       0.862  -0.679   2.055  0.00  0.00    -0.078 Cl
ATOM     29 CL   UNL     1      -2.067  -0.727   2.354  0.00  0.00    -0.078 Cl
ENDBRANCH  17  26
ENDBRANCH   1  17
TORSDOF 4
