REMARK  Name = ZINC09310278
REMARK  5 active torsions:
REMARK  status: ('A' for Active; 'I' for Inactive)
REMARK    1  A    between atoms: C_1  and  N_2
REMARK    2  A    between atoms: C_6  and  C_7
REMARK    3  A    between atoms: C_10  and  O_13
REMARK    4  A    between atoms: O_13  and  C_14
REMARK    5  A    between atoms: C_14  and  C_16
REMARK                            x       y       z     vdW  Elec       q    Type
REMARK                         _______ _______ _______ _____ _____    ______ ____
ROOT
ATOM      1  C   UNL     1       6.177   6.933  -0.188  0.00  0.00    -0.024 A 
ATOM      2  C   UNL     1       5.049   7.692   0.147  0.00  0.00    +0.011 A 
ATOM      3  C   UNL     1       3.802   7.109   0.130  0.00  0.00    +0.047 A 
ATOM      4  C   UNL     1       3.661   5.771  -0.219  0.00  0.00    +0.132 A 
ATOM      5  C   UNL     1       4.778   5.012  -0.547  0.00  0.00    +0.047 A 
ATOM      6  C   UNL     1       6.030   5.586  -0.539  0.00  0.00    +0.011 A 
ENDROOT
BRANCH   1  12
ATOM      7  C   UNL     1       9.961   3.708   1.790  0.00  0.00    +0.139 C 
ATOM      8  N   UNL     1       9.840   5.030   1.170  0.00  0.00    -0.258 N 
ATOM      9  C   UNL     1       8.639   5.492   0.864  0.00  0.00    +0.258 C 
ATOM     10  O   UNL     1       7.631   4.848   1.084  0.00  0.00    -0.269 OA
ATOM     11  C   UNL     1       8.585   6.831   0.242  0.00  0.00    +0.077 C 
ATOM     12  C   UNL     1       7.511   7.549  -0.173  0.00  0.00    +0.028 C 
ATOM     13  S   UNL     1      10.324   7.241   0.178  0.00  0.00    -0.061 S 
ATOM     14  C   UNL     1      10.955   5.747   0.924  0.00  0.00    +0.120 C 
ATOM     15  S   UNL     1      12.583   5.325   1.244  0.00  0.00    -0.027 S 
ENDBRANCH   1  12
BRANCH   4  16
ATOM     16  O   UNL     1       2.428   5.202  -0.234  0.00  0.00    -0.422 OA
BRANCH  16  17
ATOM     17  C   UNL     1       1.637   5.484  -1.287  0.00  0.00    +0.346 C 
ATOM     18  O   UNL     1       2.001   6.288  -2.123  0.00  0.00    -0.244 OA
BRANCH  17  19
ATOM     19  C   UNL     1       0.328   4.818  -1.426  0.00  0.00    +0.078 A 
ATOM     20  C   UNL     1      -0.095   3.893  -0.467  0.00  0.00    +0.018 A 
ATOM     21  C   UNL     1      -1.319   3.274  -0.602  0.00  0.00    +0.021 A 
ATOM     22  C   UNL     1      -2.133   3.571  -1.683  0.00  0.00    +0.042 A 
ATOM     23  C   UNL     1      -1.720   4.481  -2.641  0.00  0.00    +0.040 A 
ATOM     24  C   UNL     1      -0.496   5.108  -2.518  0.00  0.00    +0.056 A 
ATOM     25 CL   UNL     1       0.018   6.255  -3.715  0.00  0.00    -0.083 Cl
ATOM     26 CL   UNL     1      -3.677   2.792  -1.841  0.00  0.00    -0.083 Cl
ENDBRANCH  17  19
ENDBRANCH  16  17
ENDBRANCH   4  16
TORSDOF 4
