REMARK  Name = ZINC13130652
REMARK  10 active torsions:
REMARK  status: ('A' for Active; 'I' for Inactive)
REMARK    1  A    between atoms: C_1  and  C_2
REMARK    2  A    between atoms: C_2  and  C_3
REMARK    3  A    between atoms: C_3  and  N_4
REMARK    4  A    between atoms: C_8  and  C_10
REMARK    5  A    between atoms: C_10  and  S_11
REMARK    6  A    between atoms: S_11  and  C_12
REMARK    7  A    between atoms: C_20  and  C_24
REMARK    8  A    between atoms: N_27  and  C_28
REMARK    9  A    between atoms: C_28  and  C_29
REMARK   10  A    between atoms: C_29  and  C_30
REMARK                            x       y       z     vdW  Elec       q    Type
REMARK                         _______ _______ _______ _____ _____    ______ ____
ROOT
ATOM      1  C   UNL     1       5.423  -3.028  -1.512  0.00  0.00    +0.173 A 
ATOM      2  N   UNL     1       6.556  -3.701  -1.528  0.00  0.00    -0.216 NA
ATOM      3  C   UNL     1       7.723  -3.068  -1.537  0.00  0.00    +0.117 A 
ATOM      4  C   UNL     1       7.814  -1.667  -1.529  0.00  0.00    +0.076 A 
ATOM      5  C   UNL     1       9.169  -1.113  -1.539  0.00  0.00    -0.023 A 
ATOM      6  C   UNL     1      10.190  -1.994  -1.554  0.00  0.00    -0.004 A 
ATOM      7  S   UNL     1       9.420  -3.591  -1.557  0.00  0.00    -0.073 S 
ATOM      8  C   UNL     1      11.656  -1.685  -1.566  0.00  0.00    +0.046 C 
ATOM      9  C   UNL     1      11.843  -0.210  -1.183  0.00  0.00    -0.009 C 
ATOM     10  C   UNL     1      10.869   0.638  -2.005  0.00  0.00    +0.008 C 
ATOM     11  C   UNL     1       9.437   0.390  -1.532  0.00  0.00    +0.037 C 
ATOM     12  C   UNL     1      13.280   0.220  -1.485  0.00  0.00    +0.008 C 
ATOM     13  C   UNL     1       6.569  -0.962  -1.518  0.00  0.00    +0.263 A 
ATOM     14  O   UNL     1       6.548   0.257  -1.516  0.00  0.00    -0.267 OA
ATOM     15  N   UNL     1       5.420  -1.663  -1.505  0.00  0.00    -0.287 N 
ENDROOT
BRANCH   1  16
ATOM     16  S   UNL     1       3.893  -3.901  -1.500  0.00  0.00    -0.078 S 
BRANCH  16  17
ATOM     17  C   UNL     1       4.503  -5.605  -1.517  0.00  0.00    +0.173 C 
BRANCH  17  22
ATOM     18  N   UNL     1       2.720 -10.069  -1.522  0.00  0.00    -0.299 N 
ATOM     19  C   UNL     1       2.505  -8.739  -1.513  0.00  0.00    +0.306 C 
ATOM     20  O   UNL     1       1.369  -8.307  -1.498  0.00  0.00    -0.252 OA
ATOM     21  N   UNL     1       3.550  -7.888  -1.519  0.00  0.00    -0.240 N 
ATOM     22  C   UNL     1       3.335  -6.557  -1.509  0.00  0.00    +0.231 C 
ATOM     23  O   UNL     1       2.202  -6.126  -1.494  0.00  0.00    -0.274 OA
ATOM     24  H   UNL     1       3.627 -10.414  -1.535  0.00  0.00    +0.150 HD
ATOM     25  H   UNL     1       4.457  -8.232  -1.531  0.00  0.00    +0.159 HD
BRANCH  18  26
ATOM     26  C   UNL     1       1.585 -10.995  -1.515  0.00  0.00    +0.105 C 
BRANCH  26  28
ATOM     27  C   UNL     1       0.914 -13.402  -1.522  0.00  0.00    +0.005 C 
ATOM     28  C   UNL     1       2.100 -12.435  -1.529  0.00  0.00    +0.015 C 
ENDBRANCH  26  28
ENDBRANCH  18  26
ENDBRANCH  17  22
ENDBRANCH  16  17
ENDBRANCH   1  16
BRANCH  15  29
ATOM     29  C   UNL     1       4.142  -0.948  -1.488  0.00  0.00    +0.132 C 
BRANCH  29  30
ATOM     30  C   UNL     1       3.711  -0.707  -0.039  0.00  0.00    +0.057 C 
BRANCH  30  31
ATOM     31  C   UNL     1       2.396   0.029  -0.022  0.00  0.00    -0.046 A 
ATOM     32  C   UNL     1       1.208  -0.679  -0.014  0.00  0.00    +0.004 A 
ATOM     33  C   UNL     1       0.002  -0.004   0.002  0.00  0.00    +0.000 A 
ATOM     34  C   UNL     1      -0.017   1.378   0.010  0.00  0.00    +0.000 A 
ATOM     35  C   UNL     1       1.171   2.086   0.002  0.00  0.00    +0.000 A 
ATOM     36  C   UNL     1       2.377   1.411  -0.014  0.00  0.00    +0.004 A 
ENDBRANCH  30  31
ENDBRANCH  29  30
ENDBRANCH  15  29
TORSDOF 8
