REMARK  Name = ZINC11865398
REMARK  10 active torsions:
REMARK  status: ('A' for Active; 'I' for Inactive)
REMARK    1  A    between atoms: C_1  and  C_2
REMARK    2  A    between atoms: C_3  and  C_37
REMARK    3  A    between atoms: C_9  and  C_36
REMARK    4  A    between atoms: C_10  and  C_16
REMARK    5  A    between atoms: C_16  and  C_17
REMARK    6  A    between atoms: C_17  and  C_18
REMARK    7  A    between atoms: N_20  and  CA_21
REMARK    8  A    between atoms: CA_21  and  CB_23
REMARK    9  A    between atoms: CA_21  and  C_34
REMARK   10  A    between atoms: CB_23  and  CG_24
REMARK                            x       y       z     vdW  Elec       q    Type
REMARK                         _______ _______ _______ _____ _____    ______ ____
ROOT
ATOM      1  C   UNK A   0      -1.415   0.243   2.946  0.00  0.00    +0.100 C 
ENDROOT
BRANCH   1   2
ATOM      2  C   UNK A   0      -1.411   0.967   4.268  0.00  0.00    +0.214 C 
ATOM      3  O   UNK A   0      -0.359   1.272   4.790  0.00  0.00    -0.276 OA
ATOM      4  N   TRP A   1      -2.576   1.275   4.871  0.00  0.00    -0.302 N 
ATOM      5  H   TRP A   1      -3.417   1.031   4.453  0.00  0.00    +0.150 HD
BRANCH   4   6
ATOM      6  CA  TRP A   1      -2.573   1.979   6.155  0.00  0.00    +0.191 C 
BRANCH   6   7
ATOM      7  C   TRP A   1      -2.471   3.463   5.915  0.00  0.00    +0.376 C 
ATOM      8  O   TRP A   1      -2.407   3.889   4.787  0.00  0.00    -0.244 OA
ATOM      9  OXT TRP A   1      -2.450   4.311   6.955  0.00  0.00    -0.244 OA
ENDBRANCH   6   7
BRANCH   6  10
ATOM     10  CB  TRP A   1      -3.869   1.672   6.909  0.00  0.00    +0.071 C 
BRANCH  10  11
ATOM     11  CG  TRP A   1      -3.913   0.206   7.257  0.00  0.00    -0.020 A 
ATOM     12  CD1 TRP A   1      -4.512  -0.764   6.550  0.00  0.00    +0.087 A 
ATOM     13  NE1 TRP A   1      -4.342  -1.970   7.175  0.00  0.00    -0.360 N 
ATOM     14  HE1 TRP A   1      -4.686  -2.818   6.853  0.00  0.00    +0.165 HD
ATOM     15  CE2 TRP A   1      -3.610  -1.800   8.328  0.00  0.00    +0.047 A 
ATOM     16  CD2 TRP A   1      -3.304  -0.430   8.427  0.00  0.00    +0.003 A 
ATOM     17  CE3 TRP A   1      -2.557   0.041   9.508  0.00  0.00    +0.010 A 
ATOM     18  CZ3 TRP A   1      -2.122  -0.834  10.464  0.00  0.00    +0.001 A 
ATOM     19  CH2 TRP A   1      -2.418  -2.187  10.369  0.00  0.00    +0.002 A 
ATOM     20  CZ2 TRP A   1      -3.161  -2.671   9.315  0.00  0.00    +0.026 A 
ENDBRANCH  10  11
ENDBRANCH   6  10
ENDBRANCH   4   6
ENDBRANCH   1   2
BRANCH   1  21
ATOM     21  C   UNK A   0       0.026   0.017   2.485  0.00  0.00    +0.052 C 
BRANCH  21  31
ATOM     22  C   UNK A   0      -0.091   0.922  -5.676  0.00  0.00    +0.048 C 
ATOM     23  C   UNK A   0      -0.064  -0.465  -5.087  0.00  0.00    -0.002 A 
ATOM     24  C   UNK A   0      -0.058  -1.623  -5.758  0.00  0.00    +0.106 A 
ATOM     25  O   UNK A   0      -0.032  -2.659  -4.900  0.00  0.00    -0.460 OA
ATOM     26  C   UNK A   0      -0.020  -2.227  -3.622  0.00  0.00    +0.139 A 
ATOM     27  C   UNK A   0      -0.039  -0.818  -3.660  0.00  0.00    +0.024 A 
ATOM     28  C   UNK A   0      -0.032  -0.081  -2.484  0.00  0.00    +0.023 A 
ATOM     29  C   UNK A   0      -0.006  -0.750  -1.260  0.00  0.00    +0.022 A 
ATOM     30  C   UNK A   0       0.002  -0.004   0.002  0.00  0.00    -0.030 A 
ATOM     31  C   UNK A   0       0.023  -0.707   1.163  0.00  0.00    +0.041 A 
ATOM     32  C   UNK A   0       0.041  -2.118   1.129  0.00  0.00    +0.341 A 
ATOM     33  O   UNK A   0       0.059  -2.736   2.178  0.00  0.00    -0.245 OA
ATOM     34  O   UNK A   0       0.039  -2.796  -0.029  0.00  0.00    -0.422 OA
ATOM     35  C   UNK A   0       0.019  -2.160  -1.222  0.00  0.00    +0.143 A 
ATOM     36  C   UNK A   0       0.017  -2.884  -2.401  0.00  0.00    +0.093 A 
ATOM     37  C   UNK A   0      -0.018   1.503   0.010  0.00  0.00    +0.045 C 
ATOM     38  C   UNK A   0      -0.077  -1.749  -7.259  0.00  0.00    +0.086 C 
ENDBRANCH  21  31
ENDBRANCH   1  21
TORSDOF 7
