REMARK  Name = ZINC11909235
REMARK  8 active torsions:
REMARK  status: ('A' for Active; 'I' for Inactive)
REMARK    1  A    between atoms: C_1  and  C_2
REMARK    2  A    between atoms: C_6  and  C_10
REMARK    3  A    between atoms: C_10  and  N_11
REMARK    4  A    between atoms: C_12  and  C_14
REMARK    5  A    between atoms: C_17  and  C_22
REMARK    6  A    between atoms: C_22  and  N_56
REMARK    7  A    between atoms: C_23  and  N_56
REMARK    8  A    between atoms: C_24  and  N_56
REMARK                            x       y       z     vdW  Elec       q    Type
REMARK                         _______ _______ _______ _____ _____    ______ ____
ROOT
ATOM      1  C   UNL     1       1.686   2.669   0.239  0.00  0.00    +0.101 A 
ATOM      2  C   UNL     1       0.650   1.738   0.216  0.00  0.00    +0.020 A 
ATOM      3  C   UNL     1      -0.667   2.194   0.151  0.00  0.00    +0.020 A 
ATOM      4  C   UNL     1      -0.925   3.527   0.123  0.00  0.00    +0.003 A 
ATOM      5  N   UNL     1       0.077   4.437   0.146  0.00  0.00    -0.327 N 
ATOM      6  H   UNL     1      -0.137   5.383   0.120  0.00  0.00    +0.169 HD
ATOM      7  C   UNL     1       1.366   4.051   0.202  0.00  0.00    +0.261 A 
ATOM      8  O   UNL     1       2.254   4.885   0.221  0.00  0.00    -0.267 OA
ENDROOT
BRANCH   1  10
ATOM      9  N   UNL     1       4.084   3.130   0.205  0.00  0.00    -0.306 N 
ATOM     10  C   UNL     1       3.088   2.227   0.301  0.00  0.00    +0.250 C 
ATOM     11  O   UNL     1       3.348   1.047   0.437  0.00  0.00    -0.270 OA
ATOM     12  H   UNL     1       3.878   4.077   0.168  0.00  0.00    +0.149 HD
BRANCH   9  13
ATOM     13  C   UNL     1       5.478   2.681   0.159  0.00  0.00    +0.161 C 
BRANCH  13  19
ATOM     14  C   UNL     1      10.056   8.566   0.467  0.00  0.00    +0.053 C 
ATOM     15  C   UNL     1       9.131   7.414   0.172  0.00  0.00    +0.007 A 
ATOM     16  C   UNL     1       8.567   6.552   1.017  0.00  0.00    +0.103 A 
ATOM     17  N   UNL     1       7.740   5.551   0.557  0.00  0.00    -0.300 N 
ATOM     18  C   UNL     1       6.991   4.499   1.079  0.00  0.00    +0.118 A 
ATOM     19  C   UNL     1       6.387   3.878   0.053  0.00  0.00    +0.078 A 
ATOM     20  N   UNL     1       6.737   4.500  -1.084  0.00  0.00    -0.225 NA
ATOM     21  C   UNL     1       7.530   5.492  -0.795  0.00  0.00    +0.178 A 
ATOM     22  S   UNL     1       8.504   6.849  -1.403  0.00  0.00    -0.055 S 
ENDBRANCH  13  19
ENDBRANCH   9  13
ENDBRANCH   1  10
BRANCH   4  23
ATOM     23  C   UNL     1      -2.354   4.001   0.059  0.00  0.00    -0.025 C 
BRANCH  23  25
ATOM     24  C   UNL     1      -2.634   3.784  -2.336  0.00  0.00    -0.095 C 
ATOM     25  N   UNL     1      -2.554   4.736  -1.208  0.00  0.00    +0.383 N 
ATOM     26  H   UNL     1      -1.756   5.364  -1.359  0.00  0.00    -0.081 HD
BRANCH  25  27
ATOM     27  C   UNL     1      -3.792   5.540  -1.137  0.00  0.00    -0.068 C 
ATOM     28  C   UNL     1      -5.014   4.631  -0.988  0.00  0.00    -0.015 C 
ATOM     29  C   UNL     1      -6.280   5.487  -0.918  0.00  0.00    -0.002 C 
ATOM     30  C   UNL     1      -6.410   6.311  -2.200  0.00  0.00    -0.000 C 
ATOM     31  C   UNL     1      -5.188   7.220  -2.349  0.00  0.00    -0.002 C 
ATOM     32  C   UNL     1      -3.922   6.364  -2.419  0.00  0.00    -0.015 C 
ENDBRANCH  25  27
ENDBRANCH  23  25
ENDBRANCH   4  23
TORSDOF 6
