REMARK  Name = ZINC09579648
REMARK  5 active torsions:
REMARK  status: ('A' for Active; 'I' for Inactive)
REMARK    1  A    between atoms: C_3  and  C_6
REMARK    2  A    between atoms: C_9  and  C_12
REMARK    3  A    between atoms: C_15  and  N_19
REMARK    4  A    between atoms: C_17  and  O_18
REMARK    5  A    between atoms: C_22  and  C_24
REMARK                            x       y       z     vdW  Elec       q    Type
REMARK                         _______ _______ _______ _____ _____    ______ ____
ROOT
ATOM      1  C   UNL     1       3.737   1.806  -0.024  0.00  0.00    +0.075 C 
ATOM      2  N   UNL     1       4.091   3.048  -0.016  0.00  0.00    -0.180 NA
ATOM      3  N   UNL     1       5.470   3.246  -0.029  0.00  0.00    -0.181 N 
ATOM      4  C   UNL     1       6.139   1.936  -0.050  0.00  0.00    +0.141 C 
ATOM      5  C   UNL     1       4.970   0.931  -0.041  0.00  0.00    +0.087 C 
ATOM      6  C   UNL     1       6.090   4.443  -0.025  0.00  0.00    +0.273 C 
ATOM      7  O   UNL     1       7.306   4.498  -0.038  0.00  0.00    -0.268 OA
ENDROOT
BRANCH   4   8
ATOM      8  C   UNL     1       6.969   1.784  -1.298  0.00  0.00    +0.017 A 
ATOM      9  C   UNL     1       6.739   2.604  -2.386  0.00  0.00    +0.011 A 
ATOM     10  C   UNL     1       7.500   2.465  -3.531  0.00  0.00    +0.033 A 
ATOM     11  C   UNL     1       8.494   1.506  -3.592  0.00  0.00    +0.130 A 
ATOM     12  C   UNL     1       8.728   0.683  -2.507  0.00  0.00    +0.078 A 
ATOM     13  C   UNL     1       7.969   0.825  -1.354  0.00  0.00    +0.124 A 
BRANCH  11  14
ATOM     14  N   UNL     1       9.307   1.360  -4.820  0.00  0.00    +0.057 N 
ATOM     15  O   UNL     1       9.102   2.079  -5.770  0.00  0.00    -0.126 OA
ATOM     16  O   UNL     1      10.176   0.521  -4.873  0.00  0.00    -0.126 OA
ENDBRANCH  11  14
BRANCH  13  17
ATOM     17  O   UNL     1       8.201   0.020  -0.284  0.00  0.00    -0.506 OA
ATOM     18  H   UNL     1       7.688  -0.800  -0.289  0.00  0.00    +0.292 HD
ENDBRANCH  13  17
ENDBRANCH   4   8
BRANCH   1  21
ATOM     19  C   UNL     1      -0.016   1.354   0.009  0.00  0.00    +0.008 A 
ATOM     20  C   UNL     1       1.174   2.044   0.002  0.00  0.00    +0.017 A 
ATOM     21  C   UNL     1       2.353   1.320  -0.013  0.00  0.00    +0.035 A 
ATOM     22  S   UNL     1       1.751  -0.361  -0.017  0.00  0.00    -0.095 S 
ATOM     23  C   UNL     1       0.002  -0.004   0.002  0.00  0.00    +0.046 A 
ENDBRANCH   1  21
BRANCH   6  24
ATOM     24  C   UNL     1       5.301   5.677  -0.004  0.00  0.00    +0.076 A 
ATOM     25  C   UNL     1       5.736   6.994  -0.002  0.00  0.00    +0.021 A 
ATOM     26  C   UNL     1       4.749   7.949   0.019  0.00  0.00    +0.008 A 
ATOM     27  C   UNL     1       3.451   7.556   0.036  0.00  0.00    +0.046 A 
ATOM     28  S   UNL     1       3.529   5.878   0.018  0.00  0.00    -0.092 S 
ENDBRANCH   6  24
TORSDOF 5
