REMARK  Name = ZINC08723678
REMARK  8 active torsions:
REMARK  status: ('A' for Active; 'I' for Inactive)
REMARK    1  A    between atoms: C_1  and  C_2
REMARK    2  A    between atoms: C_2  and  N_50
REMARK    3  A    between atoms: C_3  and  C_4
REMARK    4  A    between atoms: C_3  and  N_50
REMARK    5  A    between atoms: C_17  and  C_18
REMARK    6  A    between atoms: C_17  and  N_50
REMARK    7  A    between atoms: N_20  and  C_21
REMARK    8  A    between atoms: C_22  and  C_29
REMARK                            x       y       z     vdW  Elec       q    Type
REMARK                         _______ _______ _______ _____ _____    ______ ____
ROOT
ATOM      1  N   UNL     1       2.147   3.699   0.064  0.00  0.00    +0.390 N 
ATOM      2  H   UNL     1       2.570   3.119  -0.670  0.00  0.00    -0.081 HD
ENDROOT
BRANCH   1   4
ATOM      3  C   UNL     1       4.453   3.825   0.868  0.00  0.00    -0.017 C 
ATOM      4  C   UNL     1       2.991   3.630   1.276  0.00  0.00    -0.081 C 
ENDBRANCH   1   4
BRANCH   1   5
ATOM      5  C   UNL     1       2.063   5.095  -0.414  0.00  0.00    -0.003 C 
BRANCH   5   6
ATOM      6  C   UNL     1       1.615   5.085  -1.853  0.00  0.00    +0.094 A 
ATOM      7  N   UNL     1       1.381   6.277  -2.463  0.00  0.00    -0.312 N 
ATOM      8  H   UNL     1       1.504   7.102  -1.969  0.00  0.00    +0.170 HD
ATOM      9  C   UNL     1       0.977   6.323  -3.754  0.00  0.00    +0.259 A 
ATOM     10  O   UNL     1       0.764   7.383  -4.312  0.00  0.00    -0.267 OA
ATOM     11  C   UNL     1       0.806   5.042  -4.456  0.00  0.00    +0.065 A 
ATOM     12  C   UNL     1       0.394   4.980  -5.785  0.00  0.00    +0.017 A 
ATOM     13  C   UNL     1       0.250   3.763  -6.392  0.00  0.00    +0.021 A 
ATOM     14  C   UNL     1       0.511   2.588  -5.697  0.00  0.00    +0.043 A 
ATOM     15  C   UNL     1       0.919   2.623  -4.380  0.00  0.00    +0.048 A 
ATOM     16  C   UNL     1       1.072   3.854  -3.740  0.00  0.00    +0.079 A 
ATOM     17  N   UNL     1       1.477   3.940  -2.448  0.00  0.00    -0.236 NA
ATOM     18 CL   UNL     1       0.319   1.058  -6.495  0.00  0.00    -0.083 Cl
ENDBRANCH   5   6
ENDBRANCH   1   5
BRANCH   1  19
ATOM     19  C   UNL     1       0.793   3.184   0.362  0.00  0.00    +0.019 C 
BRANCH  19  20
ATOM     20  C   UNL     1       0.885   1.705   0.633  0.00  0.00    +0.201 C 
ATOM     21  O   UNL     1       1.961   1.147   0.599  0.00  0.00    -0.278 OA
ATOM     22  N   UNL     1      -0.230   1.001   0.913  0.00  0.00    -0.281 N 
ATOM     23  H   UNL     1      -1.091   1.446   0.937  0.00  0.00    +0.155 HD
BRANCH  22  24
ATOM     24  C   UNL     1      -0.146  -0.362   1.163  0.00  0.00    +0.090 A 
ATOM     25  C   UNL     1      -1.166  -1.244   1.471  0.00  0.00    +0.084 A 
ATOM     26  C   UNL     1      -0.809  -2.645   1.687  0.00  0.00    -0.018 A 
ATOM     27  C   UNL     1       0.502  -2.924   1.569  0.00  0.00    -0.004 A 
ATOM     28  S   UNL     1       1.262  -1.369   1.173  0.00  0.00    -0.077 S 
ATOM     29  C   UNL     1       0.792  -4.381   1.808  0.00  0.00    +0.043 C 
ATOM     30  C   UNL     1      -0.580  -5.078   1.670  0.00  0.00    +0.010 C 
ATOM     31  C   UNL     1      -1.550  -3.937   2.033  0.00  0.00    +0.037 C 
BRANCH  25  32
ATOM     32  C   UNL     1      -2.525  -0.801   1.571  0.00  0.00    +0.102 C 
ATOM     33  N   UNL     1      -3.602  -0.450   1.649  0.00  0.00    -0.191 NA
ENDBRANCH  25  32
ENDBRANCH  22  24
ENDBRANCH  19  20
ENDBRANCH   1  19
TORSDOF 7
