REMARK  Name = ZINC38117884
REMARK  9 active torsions:
REMARK  status: ('A' for Active; 'I' for Inactive)
REMARK    1  A    between atoms: C_1  and  C_2
REMARK    2  A    between atoms: C_2  and  C_3
REMARK    3  A    between atoms: C_2  and  C_5
REMARK    4  A    between atoms: C_2  and  N_14
REMARK    5  A    between atoms: C_3  and  O_4
REMARK    6  A    between atoms: C_8  and  O_13
REMARK    7  A    between atoms: C_9  and  O_11
REMARK    8  A    between atoms: O_11  and  C_12
REMARK    9  A    between atoms: N_14  and  C_15
REMARK                            x       y       z     vdW  Elec       q    Type
REMARK                         _______ _______ _______ _____ _____    ______ ____
ROOT
ATOM      1  C   UNL     1       0.113   1.680   0.529  0.00  0.00    +0.039 C 
ATOM      2  C   UNL     1       0.143   0.217   0.081  0.00  0.00    +0.078 C 
ENDROOT
BRANCH   2   3
ATOM      3  C   UNL     1      -1.194  -0.420   0.358  0.00  0.00    -0.019 A 
ATOM      4  C   UNL     1      -1.677  -1.404  -0.486  0.00  0.00    +0.009 A 
ATOM      5  C   UNL     1      -2.903  -1.992  -0.236  0.00  0.00    +0.049 A 
ATOM      6  C   UNL     1      -3.650  -1.596   0.862  0.00  0.00    +0.158 A 
ATOM      7  C   UNL     1      -3.164  -0.607   1.711  0.00  0.00    +0.162 A 
ATOM      8  C   UNL     1      -1.932  -0.025   1.457  0.00  0.00    +0.055 A 
BRANCH   7   9
ATOM      9  O   UNL     1      -3.894  -0.215   2.789  0.00  0.00    -0.491 OA
ATOM     10  C   UNL     1      -3.332   0.805   3.617  0.00  0.00    +0.277 C 
ENDBRANCH   7   9
BRANCH   6  11
ATOM     11  O   UNL     1      -4.857  -2.174   1.108  0.00  0.00    -0.503 OA
ATOM     12  H   UNL     1      -4.809  -2.958   1.672  0.00  0.00    +0.292 HD
ENDBRANCH   6  11
ENDBRANCH   2   3
BRANCH   2  13
ATOM     13  N   UNL     1       0.428   0.152  -1.355  0.00  0.00    -0.332 N 
ATOM     14  H   UNL     1       1.215  -0.317  -1.672  0.00  0.00    +0.147 HD
BRANCH  13  15
ATOM     15  C   UNL     1      -0.436   0.765  -2.267  0.00  0.00    +0.028 A 
ATOM     16  C   UNL     1      -1.638   1.307  -1.830  0.00  0.00    +0.024 A 
ATOM     17  C   UNL     1      -2.490   1.912  -2.734  0.00  0.00    +0.017 A 
ATOM     18  C   UNL     1      -2.146   1.978  -4.072  0.00  0.00    +0.018 A 
ATOM     19  C   UNL     1      -0.949   1.439  -4.510  0.00  0.00    +0.017 A 
ATOM     20  C   UNL     1      -0.091   0.839  -3.610  0.00  0.00    +0.024 A 
ATOM     21 BR   UNL     1      -3.315   2.806  -5.306  0.00  0.00    -0.050 Br
ENDBRANCH  13  15
ENDBRANCH   2  13
BRANCH   2  22
ATOM     22  C   UNL     1       1.234  -0.530   0.851  0.00  0.00    +0.186 C 
BRANCH  22  23
ATOM     23  O   UNL     1       1.278  -1.890   0.415  0.00  0.00    -0.393 OA
ATOM     24  H   UNL     1       1.949  -2.425   0.862  0.00  0.00    +0.210 HD
ENDBRANCH  22  23
ENDBRANCH   2  22
TORSDOF 7
