REMARK  Name = ZINC20982737
REMARK  7 active torsions:
REMARK  status: ('A' for Active; 'I' for Inactive)
REMARK    1  A    between atoms: C_1  and  C_2
REMARK    2  A    between atoms: C_2  and  C_4
REMARK    3  A    between atoms: C_2  and  O_16
REMARK    4  A    between atoms: O_16  and  C_17
REMARK    5  A    between atoms: C_17  and  C_19
REMARK    6  A    between atoms: C_19  and  S_20
REMARK    7  A    between atoms: S_20  and  C_21
REMARK                            x       y       z     vdW  Elec       q    Type
REMARK                         _______ _______ _______ _____ _____    ______ ____
ROOT
ATOM      1  C   UNL     1      -0.841   1.701   1.086  0.00  0.00    +0.062 C 
ATOM      2  C   UNL     1       0.006   1.056  -0.012  0.00  0.00    +0.259 C 
ENDROOT
BRANCH   2   3
ATOM      3  C   UNL     1       1.303   1.810  -0.154  0.00  0.00    +0.260 C 
ATOM      4  O   UNL     1       1.502   2.495  -1.136  0.00  0.00    -0.271 OA
ATOM      5  N   UNL     1       2.242   1.725   0.809  0.00  0.00    -0.268 N 
ATOM      6  C   UNL     1       2.041   0.849   1.972  0.00  0.00    +0.114 C 
ATOM      7  C   UNL     1       2.455   1.624   3.225  0.00  0.00    +0.024 C 
ATOM      8  C   UNL     1       3.945   1.954   3.135  0.00  0.00    +0.038 C 
ATOM      9  C   UNL     1       4.262   2.608   1.817  0.00  0.00    -0.026 A 
ATOM     10  C   UNL     1       3.423   2.474   0.721  0.00  0.00    +0.040 A 
ATOM     11  C   UNL     1       3.748   3.087  -0.483  0.00  0.00    +0.024 A 
ATOM     12  C   UNL     1       4.906   3.831  -0.589  0.00  0.00    +0.002 A 
ATOM     13  C   UNL     1       5.741   3.967   0.504  0.00  0.00    +0.000 A 
ATOM     14  C   UNL     1       5.420   3.358   1.702  0.00  0.00    +0.005 A 
ENDBRANCH   2   3
BRANCH   2  15
ATOM     15  O   UNL     1      -0.718   1.097  -1.270  0.00  0.00    -0.452 OA
BRANCH  15  16
ATOM     16  C   UNL     1      -1.511   0.051  -1.551  0.00  0.00    +0.318 C 
ATOM     17  O   UNL     1      -1.597  -0.869  -0.771  0.00  0.00    -0.250 OA
BRANCH  16  18
ATOM     18  C   UNL     1      -2.294   0.023  -2.838  0.00  0.00    +0.194 C 
BRANCH  18  19
ATOM     19  S   UNL     1      -3.262  -1.509  -2.924  0.00  0.00    -0.114 S 
BRANCH  19  20
ATOM     20  C   UNL     1      -4.109  -1.391  -4.465  0.00  0.00    +0.008 A 
ATOM     21  C   UNL     1      -3.931  -0.276  -5.274  0.00  0.00    +0.015 A 
ATOM     22  C   UNL     1      -4.592  -0.191  -6.484  0.00  0.00    +0.001 A 
ATOM     23  C   UNL     1      -5.439  -1.208  -6.884  0.00  0.00    +0.000 A 
ATOM     24  C   UNL     1      -5.624  -2.316  -6.078  0.00  0.00    +0.001 A 
ATOM     25  C   UNL     1      -4.962  -2.412  -4.870  0.00  0.00    +0.015 A 
ENDBRANCH  19  20
ENDBRANCH  18  19
ENDBRANCH  16  18
ENDBRANCH  15  16
ENDBRANCH   2  15
TORSDOF 6
