REMARK  Name = ZINC41018281
REMARK  9 active torsions:
REMARK  status: ('A' for Active; 'I' for Inactive)
REMARK    1  A    between atoms: C_1  and  C_2
REMARK    2  A    between atoms: C_2  and  C_3
REMARK    3  A    between atoms: C_3  and  O_4
REMARK    4  A    between atoms: O_4  and  C_5
REMARK    5  A    between atoms: C_10  and  C_11
REMARK    6  A    between atoms: C_12  and  C_13
REMARK    7  A    between atoms: C_12  and  C_15
REMARK    8  A    between atoms: C_21  and  C_28
REMARK    9  A    between atoms: C_23  and  C_27
REMARK                            x       y       z     vdW  Elec       q    Type
REMARK                         _______ _______ _______ _____ _____    ______ ____
ROOT
ATOM      1  C   UNL     1       0.464  -6.939   0.164  0.00  0.00    +0.260 C 
ATOM      2  O   UNL     1      -0.096  -6.393  -0.768  0.00  0.00    -0.269 OA
ATOM      3  N   UNL     1       0.609  -8.278   0.172  0.00  0.00    -0.260 N 
ATOM      4  C   UNL     1       0.122  -9.034  -0.880  0.00  0.00    +0.166 A 
ATOM      5  N   UNL     1       0.162 -10.335  -1.048  0.00  0.00    -0.224 NA
ATOM      6  C   UNL     1      -0.358 -10.944  -2.136  0.00  0.00    +0.083 A 
ATOM      7  C   UNL     1      -0.381 -12.325  -2.437  0.00  0.00    -0.024 A 
ATOM      8  C   UNL     1      -0.954 -12.780  -3.595  0.00  0.00    +0.009 A 
ATOM      9  C   UNL     1      -1.530 -11.910  -4.509  0.00  0.00    -0.049 A 
ATOM     10  C   UNL     1      -1.526 -10.553  -4.247  0.00  0.00    +0.020 A 
ATOM     11  C   UNL     1      -0.954 -10.088  -3.090  0.00  0.00    +0.041 A 
ATOM     12  S   UNL     1      -0.730  -8.486  -2.353  0.00  0.00    -0.052 S 
ATOM     13  C   UNL     1      -2.153 -12.440  -5.776  0.00  0.00    +0.044 C 
ATOM     14  C   UNL     1       0.234 -13.308  -1.473  0.00  0.00    +0.046 C 
ATOM     15  H   UNL     1       1.055  -8.713   0.915  0.00  0.00    +0.157 HD
ENDROOT
BRANCH   1  17
ATOM     16  C   UNL     1       0.833  -4.766   1.274  0.00  0.00    +0.035 C 
ATOM     17  C   UNL     1       0.981  -6.136   1.282  0.00  0.00    +0.114 C 
BRANCH  16  23
ATOM     18  C   UNL     1       1.723  -2.679   2.299  0.00  0.00    +0.128 A 
ATOM     19  C   UNL     1       2.073  -1.946   3.421  0.00  0.00    +0.046 A 
ATOM     20  C   UNL     1       1.926  -2.493   4.681  0.00  0.00    +0.004 A 
ATOM     21  C   UNL     1       1.428  -3.777   4.836  0.00  0.00    +0.001 A 
ATOM     22  C   UNL     1       1.075  -4.524   3.735  0.00  0.00    +0.011 A 
ATOM     23  C   UNL     1       1.212  -3.981   2.450  0.00  0.00    +0.018 A 
BRANCH  18  24
ATOM     24  O   UNL     1       1.867  -2.143   1.061  0.00  0.00    -0.491 OA
BRANCH  24  25
ATOM     25  C   UNL     1       2.392  -0.816   0.986  0.00  0.00    +0.229 C 
BRANCH  25  27
ATOM     26  C   UNL     1       3.044   1.035  -0.559  0.00  0.00    +0.007 C 
ATOM     27  C   UNL     1       2.482  -0.385  -0.479  0.00  0.00    +0.038 C 
ENDBRANCH  25  27
ENDBRANCH  24  25
ENDBRANCH  18  24
ENDBRANCH  16  23
BRANCH  17  28
ATOM     28  C   UNL     1       1.640  -6.778   2.380  0.00  0.00    +0.104 C 
ATOM     29  N   UNL     1       2.163  -7.287   3.250  0.00  0.00    -0.191 NA
ENDBRANCH  17  28
ENDBRANCH   1  17
TORSDOF 6
