REMARK  Name = ZINC34791322
REMARK  6 active torsions:
REMARK  status: ('A' for Active; 'I' for Inactive)
REMARK    1  A    between atoms: C_1  and  O_2
REMARK    2  A    between atoms: O_2  and  C_3
REMARK    3  A    between atoms: C_6  and  N_11
REMARK    4  A    between atoms: C_8  and  O_9
REMARK    5  A    between atoms: O_9  and  C_10
REMARK    6  A    between atoms: C_22  and  N_26
REMARK                            x       y       z     vdW  Elec       q    Type
REMARK                         _______ _______ _______ _____ _____    ______ ____
ROOT
ATOM      1  N   UNL     1       1.776  -2.388  -4.726  0.00  0.00    -0.261 N 
ATOM      2  C   UNL     1       2.595  -1.661  -5.554  0.00  0.00    +0.153 A 
ATOM      3  C   UNL     1       3.197  -2.292  -6.657  0.00  0.00    +0.061 A 
ATOM      4  C   UNL     1       2.962  -3.670  -6.907  0.00  0.00    -0.025 A 
ATOM      5  C   UNL     1       2.157  -4.356  -6.065  0.00  0.00    +0.021 A 
ATOM      6  C   UNL     1       1.562  -3.693  -4.964  0.00  0.00    +0.261 A 
ATOM      7  O   UNL     1       0.833  -4.322  -4.216  0.00  0.00    -0.267 OA
ATOM      8  C   UNL     1       1.866  -5.825  -6.236  0.00  0.00    +0.041 C 
ATOM      9  C   UNL     1       2.200  -6.280  -7.655  0.00  0.00    +0.005 C 
ATOM     10  C   UNL     1       3.624  -5.819  -7.986  0.00  0.00    +0.005 C 
ATOM     11  C   UNL     1       3.618  -4.297  -8.107  0.00  0.00    +0.036 C 
ATOM     12  C   UNL     1       4.032  -1.525  -7.496  0.00  0.00    +0.129 A 
ATOM     13  N   UNL     1       4.209  -0.240  -7.200  0.00  0.00    -0.220 NA
ATOM     14  C   UNL     1       3.622   0.306  -6.152  0.00  0.00    +0.225 A 
ATOM     15  N   UNL     1       2.834  -0.371  -5.342  0.00  0.00    -0.217 NA
ENDROOT
BRANCH   1  19
ATOM     16  C   UNL     1      -0.031  -0.547  -1.446  0.00  0.00    +0.162 A 
ATOM     17  C   UNL     1       1.207  -1.153  -1.306  0.00  0.00    +0.051 A 
ATOM     18  C   UNL     1       1.806  -1.763  -2.392  0.00  0.00    +0.030 A 
ATOM     19  C   UNL     1       1.168  -1.770  -3.626  0.00  0.00    +0.055 A 
ATOM     20  C   UNL     1      -0.073  -1.163  -3.769  0.00  0.00    +0.075 A 
ATOM     21  C   UNL     1      -0.675  -0.557  -2.679  0.00  0.00    +0.163 A 
BRANCH  16  23
ATOM     22  C   UNL     1       0.099   0.025   0.859  0.00  0.00    +0.277 C 
ATOM     23  O   UNL     1      -0.619   0.053  -0.376  0.00  0.00    -0.491 OA
ENDBRANCH  16  23
BRANCH  21  24
ATOM     24  O   UNL     1      -1.893   0.033  -2.816  0.00  0.00    -0.491 OA
ATOM     25  C   UNL     1      -2.496  -0.016  -4.111  0.00  0.00    +0.277 C 
ENDBRANCH  21  24
ENDBRANCH   1  19
BRANCH  12  26
ATOM     26  N   UNL     1       4.647  -2.092  -8.592  0.00  0.00    -0.343 N 
ATOM     27  H   UNL     1       4.144  -2.673  -9.185  0.00  0.00    +0.144 HD
ATOM     28  H   UNL     1       5.583  -1.909  -8.771  0.00  0.00    +0.144 HD
ENDBRANCH  12  26
TORSDOF 4
