REMARK  Name = ZINC01696572
REMARK  3 active torsions:
REMARK  status: ('A' for Active; 'I' for Inactive)
REMARK    1  A    between atoms: C_1  and  C_2
REMARK    2  A    between atoms: C_2  and  C_3
REMARK    3  A    between atoms: C_2  and  O_5
REMARK                            x       y       z     vdW  Elec       q    Type
REMARK                         _______ _______ _______ _____ _____    ______ ____
ROOT
ATOM      1  C   UNL     1      -0.013   1.086   0.008  0.00  0.00    +0.144 C 
ENDROOT
BRANCH   1   2
ATOM      2  C   UNL     1      -0.753   1.593  -1.232  0.00  0.00    +0.141 C 
ATOM      3 CL   UNL     1       0.003   0.892  -2.711  0.00  0.00    -0.123 Cl
ENDBRANCH   1   2
BRANCH   1   4
ATOM      4  C   UNL     1      -0.729   1.579   1.267  0.00  0.00    +0.141 C 
ATOM      5 CL   UNL     1       0.055   0.863   2.724  0.00  0.00    -0.123 Cl
ENDBRANCH   1   4
BRANCH   1   6
ATOM      6  O   UNL     1       1.328   1.580  -0.002  0.00  0.00    -0.389 OA
ATOM      7  H   UNL     1       1.391   2.545   0.002  0.00  0.00    +0.210 HD
ENDBRANCH   1   6
TORSDOF 3
