REMARK  Name = ZINC66556506
REMARK  6 active torsions:
REMARK  status: ('A' for Active; 'I' for Inactive)
REMARK    1  A    between atoms: C_1  and  C_2
REMARK    2  A    between atoms: C_6  and  C_7
REMARK    3  A    between atoms: N_9  and  N_10
REMARK    4  A    between atoms: C_11  and  C_13
REMARK    5  A    between atoms: C_20  and  S_22
REMARK    6  A    between atoms: S_22  and  C_23
REMARK                            x       y       z     vdW  Elec       q    Type
REMARK                         _______ _______ _______ _____ _____    ______ ____
ROOT
ATOM      1  N   UNL     1       0.058  -0.732   4.900  0.00  0.00    -0.229 N 
ATOM      2  C   UNL     1       0.080  -1.625   5.909  0.00  0.00    +0.281 C 
ATOM      3  O   UNL     1       0.094  -2.818   5.666  0.00  0.00    -0.267 OA
ATOM      4  H   UNL     1       0.046   0.219   5.094  0.00  0.00    +0.173 HD
ENDROOT
BRANCH   2   5
ATOM      5  C   UNL     1       0.086  -1.175   7.254  0.00  0.00    +0.153 A 
ATOM      6  C   UNL     1       0.113  -1.978   8.400  0.00  0.00    +0.079 A 
ATOM      7  C   UNL     1       0.141  -3.366   8.605  0.00  0.00    +0.028 A 
ATOM      8  C   UNL     1       0.163  -3.849   9.879  0.00  0.00    +0.004 A 
ATOM      9  C   UNL     1       0.159  -2.954  10.962  0.00  0.00    +0.018 A 
ATOM     10  C   UNL     1       0.132  -1.622  10.748  0.00  0.00    +0.094 A 
ATOM     11  N   UNL     1       0.109  -1.121   9.476  0.00  0.00    -0.294 N 
ATOM     12  C   UNL     1       0.080   0.152   8.982  0.00  0.00    +0.174 A 
ATOM     13  N   UNL     1       0.072   0.117   7.673  0.00  0.00    -0.216 NA
BRANCH  12  14
ATOM     14  S   UNL     1       0.064   1.619   9.957  0.00  0.00    -0.091 S 
ATOM     15  C   UNL     1       0.026   2.959   8.735  0.00  0.00    +0.093 C 
ENDBRANCH  12  14
ENDBRANCH   2   5
BRANCH   1  18
ATOM     16  C   UNL     1       0.030  -0.283   2.562  0.00  0.00    +0.267 C 
ATOM     17  O   UNL     1       0.015   0.910   2.805  0.00  0.00    -0.268 OA
ATOM     18  N   UNL     1       0.051  -1.176   3.571  0.00  0.00    -0.230 N 
ATOM     19  H   UNL     1       0.063  -2.126   3.378  0.00  0.00    +0.173 HD
BRANCH  16  25
ATOM     20  C   UNL     1      -0.018   1.503   0.010  0.00  0.00    +0.045 C 
ATOM     21  C   UNL     1       0.002  -0.004   0.002  0.00  0.00    -0.031 A 
ATOM     22  C   UNL     1       0.007  -0.729  -1.166  0.00  0.00    +0.011 A 
ATOM     23  C   UNL     1       0.026  -2.083  -1.101  0.00  0.00    +0.046 A 
ATOM     24  S   UNL     1       0.038  -2.416   0.545  0.00  0.00    -0.092 S 
ATOM     25  C   UNL     1       0.023  -0.748   1.172  0.00  0.00    +0.078 A 
ENDBRANCH  16  25
ENDBRANCH   1  18
TORSDOF 4
