REMARK  Name = ZINC59094582
REMARK  15 active torsions:
REMARK  status: ('A' for Active; 'I' for Inactive)
REMARK    1  A    between atoms: C_1  and  C_2
REMARK    2  A    between atoms: C_5  and  C_7
REMARK    3  A    between atoms: C_7  and  N_8
REMARK    4  A    between atoms: N_8  and  C_9
REMARK    5  A    between atoms: N_8  and  C_19
REMARK    6  A    between atoms: C_11  and  C_17
REMARK    7  A    between atoms: C_11  and  C_18
REMARK    8  A    between atoms: C_13  and  C_15
REMARK    9  A    between atoms: C_13  and  C_16
REMARK   10  A    between atoms: C_19  and  N_21
REMARK   11  A    between atoms: N_21  and  C_22
REMARK   12  A    between atoms: C_26  and  O_30
REMARK   13  A    between atoms: C_27  and  O_28
REMARK   14  A    between atoms: O_28  and  C_29
REMARK   15  A    between atoms: O_30  and  C_31
REMARK                            x       y       z     vdW  Elec       q    Type
REMARK                         _______ _______ _______ _____ _____    ______ ____
ROOT
ATOM      1  N   UNL     1       2.305  -3.388  -1.196  0.00  0.00    -0.302 N 
ENDROOT
BRANCH   1   2
ATOM      2  C   UNL     1       3.599  -3.075  -1.815  0.00  0.00    +0.073 C 
ATOM      3  C   UNL     1       3.747  -1.556  -1.929  0.00  0.00    +0.009 C 
ATOM      4  C   UNL     1       5.096  -1.213  -2.562  0.00  0.00    -0.072 C 
ATOM      5  N   UNL     1       6.207  -1.830  -1.852  0.00  0.00    +0.386 N 
ATOM      6  C   UNL     1       6.088  -3.237  -1.503  0.00  0.00    -0.072 C 
ATOM      7  C   UNL     1       4.724  -3.600  -0.924  0.00  0.00    +0.009 C 
ATOM      8  C   UNL     1       6.408  -4.144  -2.694  0.00  0.00    -0.010 C 
ATOM      9  C   UNL     1       7.143  -3.536  -0.412  0.00  0.00    -0.010 C 
ATOM     10  C   UNL     1       5.272   0.320  -2.463  0.00  0.00    -0.010 C 
ATOM     11  C   UNL     1       5.090  -1.574  -4.047  0.00  0.00    -0.010 C 
ATOM     12  H   UNL     1       7.054  -1.707  -2.412  0.00  0.00    -0.084 HD
ATOM     13  H   UNL     1       6.373  -1.299  -0.993  0.00  0.00    -0.084 HD
ENDBRANCH   1   2
BRANCH   1  14
ATOM     14  C   UNL     1       1.416  -4.163  -1.847  0.00  0.00    +0.138 C 
ATOM     15  S   UNL     1      -0.138  -4.430  -1.181  0.00  0.00    -0.018 S 
BRANCH  14  16
ATOM     16  N   UNL     1       1.751  -4.728  -3.025  0.00  0.00    -0.294 N 
ATOM     17  H   UNL     1       1.903  -5.685  -3.077  0.00  0.00    +0.154 HD
BRANCH  16  18
ATOM     18  C   UNL     1       1.879  -3.934  -4.172  0.00  0.00    +0.079 A 
ATOM     19  C   UNL     1       1.652  -2.566  -4.100  0.00  0.00    +0.027 A 
ATOM     20  C   UNL     1       1.778  -1.783  -5.231  0.00  0.00    +0.006 A 
ATOM     21  C   UNL     1       2.131  -2.357  -6.438  0.00  0.00    +0.049 A 
ATOM     22  C   UNL     1       2.360  -3.722  -6.519  0.00  0.00    +0.163 A 
ATOM     23  C   UNL     1       2.239  -4.514  -5.384  0.00  0.00    +0.183 A 
BRANCH  23  24
ATOM     24  O   UNL     1       2.468  -5.853  -5.458  0.00  0.00    -0.490 OA
ATOM     25  C   UNL     1       1.348  -6.686  -5.766  0.00  0.00    +0.277 C 
ENDBRANCH  23  24
BRANCH  22  26
ATOM     26  O   UNL     1       2.707  -4.284  -7.708  0.00  0.00    -0.491 OA
ATOM     27  C   UNL     1       2.818  -3.409  -8.832  0.00  0.00    +0.277 C 
ENDBRANCH  22  26
ENDBRANCH  16  18
ENDBRANCH  14  16
ENDBRANCH   1  14
BRANCH   1  28
ATOM     28  C   UNL     1       1.980  -2.857   0.131  0.00  0.00    +0.181 C 
BRANCH  28  33
ATOM     29  C   UNL     1       1.289   2.123  -0.272  0.00  0.00    +0.086 C 
ATOM     30  C   UNL     1       1.001   0.646  -0.191  0.00  0.00    +0.102 A 
ATOM     31  C   UNL     1      -0.217   0.078  -0.244  0.00  0.00    +0.045 A 
ATOM     32  C   UNL     1      -0.023  -1.318  -0.131  0.00  0.00    +0.046 A 
ATOM     33  C   UNL     1       1.302  -1.519  -0.016  0.00  0.00    +0.122 A 
ATOM     34  O   UNL     1       1.917  -0.327  -0.058  0.00  0.00    -0.463 OA
ENDBRANCH  28  33
ENDBRANCH   1  28
TORSDOF 8
