REMARK  Name = ZINC58337470
REMARK  11 active torsions:
REMARK  status: ('A' for Active; 'I' for Inactive)
REMARK    1  A    between atoms: C_1  and  C_2
REMARK    2  A    between atoms: C_2  and  C_3
REMARK    3  A    between atoms: C_3  and  C_4
REMARK    4  A    between atoms: C_4  and  N_5
REMARK    5  A    between atoms: N_5  and  C_6
REMARK    6  A    between atoms: N_5  and  C_7
REMARK    7  A    between atoms: C_7  and  C_8
REMARK    8  A    between atoms: N_10  and  C_11
REMARK    9  A    between atoms: C_11  and  C_12
REMARK   10  A    between atoms: C_12  and  C_14
REMARK   11  A    between atoms: C_12  and  N_21
REMARK                            x       y       z     vdW  Elec       q    Type
REMARK                         _______ _______ _______ _____ _____    ______ ____
ROOT
ATOM      1  C   UNL     1       3.637  -7.722  -4.790  0.00  0.00    -0.019 C 
ENDROOT
BRANCH   1   2
ATOM      2  C   UNL     1       4.274  -7.810  -3.428  0.00  0.00    -0.041 A 
ATOM      3  C   UNL     1       3.500  -8.100  -2.320  0.00  0.00    +0.003 A 
ATOM      4  C   UNL     1       4.084  -8.181  -1.070  0.00  0.00    +0.000 A 
ATOM      5  C   UNL     1       5.444  -7.972  -0.927  0.00  0.00    +0.001 A 
ATOM      6  C   UNL     1       6.219  -7.683  -2.034  0.00  0.00    +0.020 A 
ATOM      7  C   UNL     1       5.635  -7.607  -3.286  0.00  0.00    +0.043 A 
ATOM      8 CL   UNL     1       6.610  -7.250  -4.678  0.00  0.00    -0.083 Cl
ENDBRANCH   1   2
BRANCH   1   9
ATOM      9  N   UNL     1       2.345  -8.421  -4.773  0.00  0.00    +0.385 N 
ATOM     10  C   UNL     1       1.687  -8.315  -6.100  0.00  0.00    -0.078 C 
ATOM     11  C   UNL     1       0.698  -9.507  -6.102  0.00  0.00    -0.020 C 
ATOM     12  C   UNL     1       1.488 -10.614  -5.367  0.00  0.00    -0.020 C 
ATOM     13  C   UNL     1       2.550  -9.867  -4.539  0.00  0.00    -0.078 C 
ATOM     14  H   UNL     1       1.749  -8.034  -4.056  0.00  0.00    -0.081 HD
ENDBRANCH   1   9
BRANCH   1  15
ATOM     15  C   UNL     1       3.417  -6.253  -5.156  0.00  0.00    +0.093 C 
BRANCH  15  18
ATOM     16  C   UNL     1       2.017  -4.397  -4.428  0.00  0.00    +0.196 C 
ATOM     17  O   UNL     1       2.434  -3.752  -5.366  0.00  0.00    -0.278 OA
ATOM     18  N   UNL     1       2.446  -5.660  -4.234  0.00  0.00    -0.318 N 
ATOM     19  H   UNL     1       2.112  -6.176  -3.483  0.00  0.00    +0.149 HD
BRANCH  16  20
ATOM     20  C   UNL     1       1.018  -3.787  -3.479  0.00  0.00    +0.018 C 
BRANCH  20  21
ATOM     21  N   UNL     1       0.714  -2.414  -3.904  0.00  0.00    +0.384 N 
ATOM     22  C   UNL     1       0.042  -2.443  -5.210  0.00  0.00    -0.096 C 
ATOM     23  H   UNL     1       1.571  -1.887  -3.979  0.00  0.00    -0.082 HD
BRANCH  21  24
ATOM     24  C   UNL     1      -0.166  -1.778  -2.914  0.00  0.00    -0.079 C 
BRANCH  24  25
ATOM     25  C   UNL     1      -0.382  -0.311  -3.291  0.00  0.00    -0.019 C 
BRANCH  25  27
ATOM     26  C   UNL     1      -1.515   1.818  -2.638  0.00  0.00    +0.004 C 
ATOM     27  C   UNL     1      -1.299   0.351  -2.261  0.00  0.00    -0.005 C 
ENDBRANCH  25  27
ENDBRANCH  24  25
ENDBRANCH  21  24
ENDBRANCH  20  21
ENDBRANCH  16  20
ENDBRANCH  15  18
ENDBRANCH   1  15
TORSDOF 9
