REMARK  Name = ZINC63388437
REMARK  6 active torsions:
REMARK  status: ('A' for Active; 'I' for Inactive)
REMARK    1  A    between atoms: C_1  and  C_2
REMARK    2  A    between atoms: C_7  and  N_8
REMARK    3  A    between atoms: C_14  and  C_17
REMARK    4  A    between atoms: N_19  and  C_20
REMARK    5  A    between atoms: C_20  and  C_21
REMARK    6  A    between atoms: C_21  and  C_22
REMARK                            x       y       z     vdW  Elec       q    Type
REMARK                         _______ _______ _______ _____ _____    ______ ____
ROOT
ATOM      1  N   UNL     1       0.026  -0.015   2.417  0.00  0.00    -0.269 N 
ATOM      2  C   UNL     1      -0.056  -0.694   3.578  0.00  0.00    +0.306 C 
ATOM      3  O   UNL     1      -0.041  -1.910   3.573  0.00  0.00    -0.252 OA
ATOM      4  N   UNL     1      -0.156  -0.026   4.745  0.00  0.00    -0.285 N 
ATOM      5  C   UNL     1      -0.293   1.436   4.760  0.00  0.00    +0.110 C 
ATOM      6  C   UNL     1       0.796   2.024   5.663  0.00  0.00    +0.032 C 
ATOM      7  C   UNL     1       0.716   1.371   7.044  0.00  0.00    +0.078 C 
ATOM      8  C   UNL     1       0.957  -0.135   6.913  0.00  0.00    +0.032 C 
ATOM      9  C   UNL     1      -0.136  -0.748   6.024  0.00  0.00    +0.110 C 
ATOM     10  H   UNL     1       0.072   0.954   2.425  0.00  0.00    +0.156 HD
ENDROOT
BRANCH   1  17
ATOM     11  C   UNL     1      -0.971   1.306   0.103  0.00  0.00    +0.045 C 
ATOM     12  C   UNL     1      -0.431  -0.099   0.047  0.00  0.00    -0.029 A 
ATOM     13  C   UNL     1      -0.405  -0.783  -1.153  0.00  0.00    +0.005 A 
ATOM     14  C   UNL     1       0.090  -2.073  -1.205  0.00  0.00    +0.000 A 
ATOM     15  C   UNL     1       0.560  -2.683  -0.056  0.00  0.00    +0.002 A 
ATOM     16  C   UNL     1       0.537  -2.005   1.147  0.00  0.00    +0.023 A 
ATOM     17  C   UNL     1       0.046  -0.707   1.201  0.00  0.00    +0.038 A 
ENDBRANCH   1  17
BRANCH   7  18
ATOM     18  C   UNL     1       1.764   1.971   7.946  0.00  0.00    +0.216 C 
ATOM     19  O   UNL     1       2.502   2.836   7.525  0.00  0.00    -0.276 OA
ATOM     20  N   UNL     1       1.881   1.546   9.219  0.00  0.00    -0.315 N 
ATOM     21  H   UNL     1       1.290   0.854   9.556  0.00  0.00    +0.149 HD
BRANCH  20  22
ATOM     22  C   UNL     1       2.900   2.129  10.095  0.00  0.00    +0.109 C 
BRANCH  22  23
ATOM     23  C   UNL     1       2.819   1.476  11.477  0.00  0.00    +0.061 C 
BRANCH  23  24
ATOM     24  C   UNL     1       3.868   2.076  12.378  0.00  0.00    -0.009 A 
ATOM     25  C   UNL     1       3.773   3.149  13.201  0.00  0.00    +0.011 A 
ATOM     26  C   UNL     1       4.877   3.523  13.944  0.00  0.00    +0.008 A 
ATOM     27  C   UNL     1       6.021   2.806  13.828  0.00  0.00    +0.045 A 
ATOM     28  S   UNL     1       5.554   1.554  12.645  0.00  0.00    -0.102 S 
ENDBRANCH  23  24
ENDBRANCH  22  23
ENDBRANCH  20  22
ENDBRANCH   7  18
TORSDOF 5
