REMARK  Name = ZINC38980887
REMARK  4 active torsions:
REMARK  status: ('A' for Active; 'I' for Inactive)
REMARK    1  A    between atoms: C_3  and  C_8
REMARK    2  A    between atoms: C_5  and  O_7
REMARK    3  A    between atoms: N_9  and  N_10
REMARK    4  A    between atoms: C_11  and  C_17
REMARK                            x       y       z     vdW  Elec       q    Type
REMARK                         _______ _______ _______ _____ _____    ______ ____
ROOT
ATOM      1  N   UNL     1       4.835   4.181   0.083  0.00  0.00    -0.172 N 
ATOM      2  C   UNL     1       5.006   5.640   0.213  0.00  0.00    +0.264 C 
ATOM      3  N   UNL     1       6.465   5.820   0.273  0.00  0.00    -0.189 NA
ATOM      4  N   UNL     1       6.992   4.707   0.194  0.00  0.00    -0.219 N 
ATOM      5  C   UNL     1       6.094   3.691   0.085  0.00  0.00    +0.174 C 
ATOM      6  S   UNL     1       6.500   2.032  -0.037  0.00  0.00    -0.015 S 
ATOM      7  H   UNL     1       7.952   4.570   0.211  0.00  0.00    +0.176 HD
ENDROOT
BRANCH   2   8
ATOM      8  C   UNL     1       4.432   6.350  -0.986  0.00  0.00    -0.001 A 
ATOM      9  C   UNL     1       3.358   5.803  -1.664  0.00  0.00    +0.007 A 
ATOM     10  C   UNL     1       2.830   6.453  -2.764  0.00  0.00    +0.002 A 
ATOM     11  C   UNL     1       3.377   7.650  -3.187  0.00  0.00    +0.020 A 
ATOM     12  C   UNL     1       4.451   8.198  -2.509  0.00  0.00    +0.041 A 
ATOM     13  C   UNL     1       4.975   7.550  -1.405  0.00  0.00    +0.027 A 
ATOM     14 CL   UNL     1       5.138   9.701  -3.040  0.00  0.00    -0.084 Cl
ENDBRANCH   2   8
BRANCH   1  16
ATOM     15  C   UNL     1       3.660   2.184  -0.232  0.00  0.00    +0.138 C 
ATOM     16  N   UNL     1       3.635   3.464  -0.015  0.00  0.00    -0.183 NA
BRANCH  15  19
ATOM     17  C   UNL     1       0.013   1.328   0.005  0.00  0.00    +0.004 A 
ATOM     18  C   UNL     1       1.186   2.054   0.005  0.00  0.00    +0.010 A 
ATOM     19  C   UNL     1       2.404   1.412  -0.230  0.00  0.00    -0.002 A 
ATOM     20  C   UNL     1       2.427   0.035  -0.464  0.00  0.00    +0.054 A 
ATOM     21  C   UNL     1       1.244  -0.683  -0.461  0.00  0.00    +0.117 A 
ATOM     22  C   UNL     1       0.038  -0.035  -0.227  0.00  0.00    +0.045 A 
BRANCH  21  23
ATOM     23  O   UNL     1       1.262  -2.022  -0.688  0.00  0.00    -0.507 OA
ATOM     24  H   UNL     1       1.357  -2.556   0.112  0.00  0.00    +0.292 HD
ENDBRANCH  21  23
ENDBRANCH  15  19
ENDBRANCH   1  16
TORSDOF 4
