REMARK  Name = ZINC04584616
REMARK  6 active torsions:
REMARK  status: ('A' for Active; 'I' for Inactive)
REMARK    1  A    between atoms: C_1  and  C_2
REMARK    2  A    between atoms: C_2  and  C_3
REMARK    3  A    between atoms: C_8  and  O_26
REMARK    4  A    between atoms: C_9  and  C_11
REMARK    5  A    between atoms: C_11  and  C_13
REMARK    6  A    between atoms: C_11  and  N_21
REMARK                            x       y       z     vdW  Elec       q    Type
REMARK                         _______ _______ _______ _____ _____    ______ ____
ROOT
ATOM      1  C   UNL     1      -6.961  -2.571  -0.749  0.00  0.00    +0.006 C 
ENDROOT
BRANCH   1   8
ATOM      2  C   UNL     1      -1.412  -0.526   0.013  0.00  0.00    +0.152 A 
ATOM      3  N   UNL     1      -2.127  -0.793   1.104  0.00  0.00    -0.205 NA
ATOM      4  C   UNL     1      -3.306  -1.227   0.751  0.00  0.00    +0.199 A 
ATOM      5  N   UNL     1      -3.395  -1.255  -0.607  0.00  0.00    -0.173 N 
ATOM      6  N   UNL     1      -2.131  -0.782  -1.047  0.00  0.00    -0.147 NA
ATOM      7  C   UNL     1      -4.579  -1.691  -1.151  0.00  0.00    +0.225 A 
ATOM      8  C   UNL     1      -5.593  -2.068  -0.364  0.00  0.00    +0.045 A 
ATOM      9  S   UNL     1      -4.901  -1.817   1.264  0.00  0.00    -0.050 S 
BRANCH   2  11
ATOM     10  C   UNL     1      -0.019   1.526   0.010  0.00  0.00    +0.012 C 
ATOM     11  C   UNL     1       0.002  -0.004   0.002  0.00  0.00    +0.075 C 
ENDBRANCH   2  11
BRANCH   7  12
ATOM     12  O   UNL     1      -4.722  -1.740  -2.503  0.00  0.00    -0.492 OA
ATOM     13  H   UNL     1      -3.939  -1.449  -2.992  0.00  0.00    +0.294 HD
ENDBRANCH   7  12
ENDBRANCH   1   8
BRANCH   1  14
ATOM     14  C   UNL     1      -7.114  -4.002  -0.301  0.00  0.00    -0.053 A 
ATOM     15  C   UNL     1      -7.425  -4.284   1.016  0.00  0.00    +0.005 A 
ATOM     16  C   UNL     1      -7.567  -5.595   1.429  0.00  0.00    +0.041 A 
ATOM     17  C   UNL     1      -7.398  -6.628   0.523  0.00  0.00    +0.158 A 
ATOM     18  C   UNL     1      -7.086  -6.345  -0.798  0.00  0.00    +0.159 A 
ATOM     19  C   UNL     1      -6.950  -5.030  -1.210  0.00  0.00    +0.043 A 
ATOM     20  F   UNL     1      -6.920  -7.351  -1.684  0.00  0.00    -0.202 F 
ATOM     21  F   UNL     1      -7.535  -7.910   0.925  0.00  0.00    -0.202 F 
ENDBRANCH   1  14
BRANCH   1  22
ATOM     22  N   UNL     1      -7.987  -1.742  -0.102  0.00  0.00    +0.387 N 
ATOM     23  C   UNL     1      -7.905  -0.345  -0.599  0.00  0.00    -0.078 C 
ATOM     24  C   UNL     1      -9.316   0.222  -0.297  0.00  0.00    -0.020 C 
ATOM     25  C   UNL     1     -10.241  -0.982  -0.588  0.00  0.00    -0.020 C 
ATOM     26  C   UNL     1      -9.337  -2.223  -0.470  0.00  0.00    -0.078 C 
ATOM     27  H   UNL     1      -7.871  -1.764   0.900  0.00  0.00    -0.080 HD
ENDBRANCH   1  22
TORSDOF 5
