REMARK  Name = ZINC36611857
REMARK  11 active torsions:
REMARK  status: ('A' for Active; 'I' for Inactive)
REMARK    1  A    between atoms: C_1  and  C_2
REMARK    2  A    between atoms: C_9  and  C_21
REMARK    3  A    between atoms: C_11  and  C_17
REMARK    4  A    between atoms: C_11  and  C_19
REMARK    5  A    between atoms: C_12  and  N_16
REMARK    6  A    between atoms: C_13  and  C_14
REMARK    7  A    between atoms: C_24  and  O_29
REMARK    8  A    between atoms: C_25  and  O_27
REMARK    9  A    between atoms: O_27  and  C_28
REMARK   10  A    between atoms: O_29  and  C_30
REMARK   11  A    between atoms: C_30  and  C_31
REMARK                            x       y       z     vdW  Elec       q    Type
REMARK                         _______ _______ _______ _____ _____    ______ ____
ROOT
ATOM      1  C   UNL     1      -0.010   1.818   0.625  0.00  0.00    +0.008 C 
ATOM      2  C   UNL     1       0.016   0.305   0.399  0.00  0.00    -0.010 C 
ATOM      3  C   UNL     1       0.763  -0.011  -0.904  0.00  0.00    +0.008 C 
ATOM      4  C   UNL     1       0.588  -1.500  -1.196  0.00  0.00    +0.037 C 
ATOM      5  C   UNL     1       0.926  -2.329   0.014  0.00  0.00    -0.029 C 
ATOM      6  C   UNL     1       1.016  -1.828   1.234  0.00  0.00    -0.055 C 
ATOM      7  C   UNL     1       0.758  -0.375   1.546  0.00  0.00    +0.035 C 
ATOM      8  C   UNL     1       1.431  -2.717   2.387  0.00  0.00    +0.085 C 
ATOM      9  C   UNL     1       0.831  -4.111   2.229  0.00  0.00    +0.191 C 
ATOM     10  C   UNL     1       1.150  -4.638   0.852  0.00  0.00    +0.054 C 
ATOM     11  C   UNL     1       1.175  -3.776  -0.198  0.00  0.00    +0.074 C 
ENDROOT
BRANCH   8  12
ATOM     12  C   UNL     1       2.934  -2.824   2.417  0.00  0.00    -0.034 A 
ATOM     13  C   UNL     1       3.637  -3.001   1.240  0.00  0.00    +0.008 A 
ATOM     14  C   UNL     1       5.015  -3.099   1.262  0.00  0.00    +0.050 A 
ATOM     15  C   UNL     1       5.696  -3.021   2.467  0.00  0.00    +0.162 A 
ATOM     16  C   UNL     1       4.989  -2.843   3.652  0.00  0.00    +0.162 A 
ATOM     17  C   UNL     1       3.607  -2.740   3.622  0.00  0.00    +0.053 A 
BRANCH  16  18
ATOM     18  O   UNL     1       5.652  -2.765   4.836  0.00  0.00    -0.491 OA
ATOM     19  C   UNL     1       4.861  -2.582   6.012  0.00  0.00    +0.277 C 
ENDBRANCH  16  18
BRANCH  15  20
ATOM     20  O   UNL     1       7.052  -3.118   2.491  0.00  0.00    -0.484 OA
BRANCH  20  21
ATOM     21  C   UNL     1       7.712  -3.300   1.236  0.00  0.00    +0.264 C 
BRANCH  21  22
ATOM     22  C   UNL     1       9.200  -3.386   1.459  0.00  0.00    -0.010 A 
ATOM     23  C   UNL     1       9.969  -2.238   1.440  0.00  0.00    +0.007 A 
ATOM     24  C   UNL     1      11.334  -2.316   1.644  0.00  0.00    +0.000 A 
ATOM     25  C   UNL     1      11.930  -3.543   1.868  0.00  0.00    +0.000 A 
ATOM     26  C   UNL     1      11.161  -4.692   1.888  0.00  0.00    +0.000 A 
ATOM     27  C   UNL     1       9.795  -4.613   1.688  0.00  0.00    +0.007 A 
ENDBRANCH  21  22
ENDBRANCH  20  21
ENDBRANCH  15  20
ENDBRANCH   8  12
BRANCH  10  28
ATOM     28  N   UNL     1       1.411  -5.966   0.663  0.00  0.00    -0.358 N 
ATOM     29  H   UNL     1       1.392  -6.576   1.417  0.00  0.00    +0.142 HD
ATOM     30  H   UNL     1       1.616  -6.298  -0.225  0.00  0.00    +0.142 HD
ENDBRANCH  10  28
BRANCH  11  31
ATOM     31  C   UNL     1       1.443  -4.268  -1.516  0.00  0.00    +0.101 C 
ATOM     32  N   UNL     1       1.655  -4.657  -2.562  0.00  0.00    -0.191 NA
ENDBRANCH  11  31
BRANCH   9  33
ATOM     33  C   UNL     1      -0.629  -4.040   2.402  0.00  0.00    +0.091 C 
ATOM     34  N   UNL     1      -1.756  -3.986   2.536  0.00  0.00    -0.194 NA
ENDBRANCH   9  33
BRANCH   9  35
ATOM     35  C   UNL     1       1.404  -5.010   3.244  0.00  0.00    +0.091 C 
ATOM     36  N   UNL     1       1.846  -5.704   4.027  0.00  0.00    -0.194 NA
ENDBRANCH   9  35
TORSDOF 9
