REMARK  Name = ZINC01076946
REMARK  2 active torsions:
REMARK  status: ('A' for Active; 'I' for Inactive)
REMARK    1  A    between atoms: C_10  and  C_11
REMARK    2  A    between atoms: C_16  and  C_21
REMARK                            x       y       z     vdW  Elec       q    Type
REMARK                         _______ _______ _______ _____ _____    ______ ____
ROOT
ATOM      1  C   UNL     1      -2.620   3.811   0.048  0.00  0.00    +0.136 C 
ATOM      2  C   UNL     1      -2.971   4.139   1.480  0.00  0.00    +0.036 C 
ATOM      3  C   UNL     1      -3.942   3.561   2.205  0.00  0.00    +0.017 C 
ATOM      4  C   UNL     1      -4.161   3.962   3.655  0.00  0.00    +0.060 C 
ATOM      5  C   UNL     1      -3.831   5.442   3.840  0.00  0.00    +0.039 C 
ATOM      6  C   UNL     1      -2.362   5.646   3.450  0.00  0.00    +0.088 C 
ATOM      7  C   UNL     1      -2.168   5.157   2.046  0.00  0.00    +0.163 C 
ATOM      8  O   UNL     1      -1.288   5.653   1.370  0.00  0.00    -0.292 OA
ATOM      9  N   UNL     1      -4.782   2.596   1.752  0.00  0.00    -0.316 N 
ATOM     10  C   UNL     1      -4.382   1.468   1.043  0.00  0.00    +0.052 A 
ATOM     11  C   UNL     1      -4.525   0.188   1.548  0.00  0.00    +0.025 A 
ATOM     12  C   UNL     1      -4.147  -0.894   0.772  0.00  0.00    +0.002 A 
ATOM     13  C   UNL     1      -3.634  -0.697  -0.497  0.00  0.00    +0.002 A 
ATOM     14  C   UNL     1      -3.474   0.584  -0.997  0.00  0.00    +0.025 A 
ATOM     15  C   UNL     1      -3.832   1.669  -0.214  0.00  0.00    +0.049 A 
ATOM     16  N   UNL     1      -3.589   2.977  -0.631  0.00  0.00    -0.331 N 
ATOM     17  H   UNL     1      -5.728   2.700   1.936  0.00  0.00    +0.152 HD
ATOM     18  H   UNL     1      -4.079   3.334  -1.388  0.00  0.00    +0.147 HD
ENDROOT
BRANCH   1  28
ATOM     19  C   UNL     1       0.921   2.771  -3.500  0.00  0.00    +0.001 A 
ATOM     20  C   UNL     1      -0.309   3.428  -3.505  0.00  0.00    +0.001 A 
ATOM     21  C   UNL     1      -1.043   3.548  -2.365  0.00  0.00    +0.009 A 
ATOM     22  C   UNL     1      -0.558   3.002  -1.165  0.00  0.00    -0.013 A 
ATOM     23  C   UNL     1       0.692   2.334  -1.160  0.00  0.00    -0.018 A 
ATOM     24  C   UNL     1       1.422   2.231  -2.357  0.00  0.00    +0.008 A 
ATOM     25  C   UNL     1       1.177   1.789   0.041  0.00  0.00    +0.008 A 
ATOM     26  C   UNL     1       0.442   1.908   1.180  0.00  0.00    +0.001 A 
ATOM     27  C   UNL     1      -0.789   2.559   1.174  0.00  0.00    +0.006 A 
ATOM     28  C   UNL     1      -1.288   3.106   0.032  0.00  0.00    -0.015 A 
ENDBRANCH   1  28
BRANCH   5  29
ATOM     29  C   UNL     1      -4.037   5.835   5.280  0.00  0.00    -0.006 A 
ATOM     30  C   UNL     1      -4.870   6.770   5.799  0.00  0.00    +0.011 A 
ATOM     31  C   UNL     1      -4.895   6.959   7.168  0.00  0.00    +0.008 A 
ATOM     32  C   UNL     1      -4.078   6.212   7.950  0.00  0.00    +0.045 A 
ATOM     33  S   UNL     1      -3.242   5.195   6.745  0.00  0.00    -0.101 S 
ENDBRANCH   5  29
TORSDOF 2
