REMARK  Name = ZINC40021806
REMARK  7 active torsions:
REMARK  status: ('A' for Active; 'I' for Inactive)
REMARK    1  A    between atoms: C_1  and  C_2
REMARK    2  A    between atoms: C_5  and  C_8
REMARK    3  A    between atoms: C_15  and  C_28
REMARK    4  A    between atoms: C_16  and  C_27
REMARK    5  A    between atoms: N_23  and  C_24
REMARK    6  A    between atoms: C_24  and  C_25
REMARK    7  A    between atoms: C_25  and  O_26
REMARK                            x       y       z     vdW  Elec       q    Type
REMARK                         _______ _______ _______ _____ _____    ______ ____
ROOT
ATOM      1  C   UNL     1       0.059  -4.275  -0.021  0.00  0.00    +0.145 C 
ATOM      2  C   UNL     1      -1.301  -4.810   0.286  0.00  0.00    +0.072 A 
ATOM      3  C   UNL     1      -2.583  -4.645  -0.407  0.00  0.00    +0.199 A 
ATOM      4  O   UNL     1      -2.685  -4.136  -1.510  0.00  0.00    -0.287 OA
ATOM      5  C   UNL     1      -3.745  -5.157   0.362  0.00  0.00    +0.065 A 
ATOM      6  C   UNL     1      -5.046  -4.897  -0.066  0.00  0.00    +0.019 A 
ATOM      7  C   UNL     1      -6.105  -5.371   0.656  0.00  0.00    -0.047 A 
ATOM      8  C   UNL     1      -5.888  -6.108   1.813  0.00  0.00    -0.044 A 
ATOM      9  C   UNL     1      -4.611  -6.375   2.249  0.00  0.00    +0.050 A 
ATOM     10  C   UNL     1      -3.513  -5.904   1.529  0.00  0.00    +0.140 A 
ATOM     11  O   UNL     1      -2.266  -6.187   1.970  0.00  0.00    -0.450 OA
ATOM     12  C   UNL     1      -1.207  -5.556   1.425  0.00  0.00    +0.199 A 
ATOM     13  C   UNL     1       0.192  -5.523   1.887  0.00  0.00    +0.283 C 
ATOM     14  O   UNL     1       0.611  -6.085   2.878  0.00  0.00    -0.267 OA
ATOM     15  N   UNL     1       0.940  -4.778   1.046  0.00  0.00    -0.282 N 
ATOM     16  C   UNL     1      -7.067  -6.621   2.600  0.00  0.00    +0.044 C 
ATOM     17  C   UNL     1      -7.513  -5.093   0.196  0.00  0.00    +0.044 C 
ENDROOT
BRANCH   1  22
ATOM     18  C   UNL     1      -0.018   1.503   0.010  0.00  0.00    +0.044 C 
ATOM     19  C   UNL     1       0.002  -0.004   0.002  0.00  0.00    -0.050 A 
ATOM     20  C   UNL     1       0.006  -0.689  -1.199  0.00  0.00    +0.004 A 
ATOM     21  C   UNL     1       0.025  -2.071  -1.206  0.00  0.00    +0.006 A 
ATOM     22  C   UNL     1       0.040  -2.768  -0.013  0.00  0.00    -0.022 A 
ATOM     23  C   UNL     1       0.037  -2.084   1.188  0.00  0.00    +0.006 A 
ATOM     24  C   UNL     1       0.023  -0.702   1.195  0.00  0.00    +0.004 A 
ENDBRANCH   1  22
BRANCH  15  25
ATOM     25  C   UNL     1       2.376  -4.514   1.172  0.00  0.00    +0.137 C 
BRANCH  25  26
ATOM     26  C   UNL     1       2.591  -3.248   2.004  0.00  0.00    +0.175 C 
BRANCH  26  27
ATOM     27  O   UNL     1       2.128  -3.471   3.338  0.00  0.00    -0.393 OA
ATOM     28  H   UNL     1       2.234  -2.708   3.923  0.00  0.00    +0.209 HD
ENDBRANCH  26  27
ENDBRANCH  25  26
ENDBRANCH  15  25
TORSDOF 4
