REMARK  Name = ZINC01891706
REMARK  9 active torsions:
REMARK  status: ('A' for Active; 'I' for Inactive)
REMARK    1  A    between atoms: C_4  and  N_7
REMARK    2  A    between atoms: C_8  and  C_32
REMARK    3  A    between atoms: C_11  and  S_12
REMARK    4  A    between atoms: S_12  and  C_13
REMARK    5  A    between atoms: C_13  and  C_14
REMARK    6  A    between atoms: N_16  and  N_17
REMARK    7  A    between atoms: C_18  and  C_19
REMARK    8  A    between atoms: C_23  and  O_25
REMARK    9  A    between atoms: O_25  and  C_26
REMARK                            x       y       z     vdW  Elec       q    Type
REMARK                         _______ _______ _______ _____ _____    ______ ____
ROOT
ATOM      1  C   UNL     1       5.807  -0.392   3.561  0.00  0.00    +0.174 C 
ENDROOT
BRANCH   1   2
ATOM      2  C   UNL     1       6.007   0.469   4.781  0.00  0.00    +0.242 C 
ATOM      3  O   UNL     1       5.139   1.244   5.126  0.00  0.00    -0.273 OA
ATOM      4  N   UNL     1       7.149   0.379   5.490  0.00  0.00    -0.206 N 
ATOM      5  H   UNL     1       7.843  -0.240   5.214  0.00  0.00    +0.177 HD
BRANCH   4   6
ATOM      6  N   UNL     1       7.335   1.180   6.625  0.00  0.00    -0.188 NA
ATOM      7  C   UNL     1       8.435   1.093   7.307  0.00  0.00    +0.138 C 
BRANCH   7   8
ATOM      8  C   UNL     1       8.631   1.936   8.501  0.00  0.00    -0.002 A 
ATOM      9  C   UNL     1       7.630   2.825   8.904  0.00  0.00    +0.010 A 
ATOM     10  C   UNL     1       7.817   3.611  10.021  0.00  0.00    +0.004 A 
ATOM     11  C   UNL     1       8.992   3.524  10.746  0.00  0.00    +0.046 A 
ATOM     12  C   UNL     1       9.992   2.644  10.354  0.00  0.00    +0.129 A 
ATOM     13  C   UNL     1       9.813   1.845   9.237  0.00  0.00    +0.055 A 
BRANCH  12  14
ATOM     14  O   UNL     1      11.145   2.564  11.069  0.00  0.00    -0.456 OA
BRANCH  14  15
ATOM     15  C   UNL     1      12.139   1.772  10.589  0.00  0.00    +0.128 A 
ATOM     16  C   UNL     1      12.819   2.133   9.435  0.00  0.00    +0.046 A 
ATOM     17  C   UNL     1      13.830   1.326   8.950  0.00  0.00    +0.004 A 
ATOM     18  C   UNL     1      14.164   0.160   9.613  0.00  0.00    +0.000 A 
ATOM     19  C   UNL     1      13.488  -0.202  10.764  0.00  0.00    +0.004 A 
ATOM     20  C   UNL     1      12.480   0.604  11.257  0.00  0.00    +0.046 A 
ENDBRANCH  14  15
ENDBRANCH  12  14
ENDBRANCH   7   8
ENDBRANCH   4   6
ENDBRANCH   1   2
BRANCH   1  21
ATOM     21  S   UNL     1       4.183  -0.041   2.832  0.00  0.00    -0.076 S 
BRANCH  21  26
ATOM     22  N   UNL     1       3.062  -1.219   0.554  0.00  0.00    -0.270 N 
ATOM     23  C   UNL     1       3.451  -2.169  -0.365  0.00  0.00    +0.169 A 
ATOM     24  N   UNL     1       4.648  -2.577  -0.013  0.00  0.00    -0.128 NA
ATOM     25  N   UNL     1       5.029  -1.959   1.047  0.00  0.00    -0.122 NA
ATOM     26  C   UNL     1       4.102  -1.112   1.435  0.00  0.00    +0.197 A 
BRANCH  23  27
ATOM     27  C   UNL     1       2.670  -2.639  -1.528  0.00  0.00    +0.020 A 
ATOM     28  C   UNL     1       1.600  -1.880  -2.007  0.00  0.00    +0.012 A 
ATOM     29  C   UNL     1       0.874  -2.324  -3.092  0.00  0.00    +0.016 A 
ATOM     30  C   UNL     1       1.205  -3.520  -3.708  0.00  0.00    +0.018 A 
ATOM     31  C   UNL     1       2.264  -4.277  -3.238  0.00  0.00    +0.016 A 
ATOM     32  C   UNL     1       3.002  -3.841  -2.156  0.00  0.00    +0.012 A 
ATOM     33 BR   UNL     1       0.205  -4.121  -5.195  0.00  0.00    -0.050 Br
ENDBRANCH  23  27
BRANCH  22  37
ATOM     34  C   UNL     1      -0.529   0.897   0.622  0.00  0.00    +0.000 A 
ATOM     35  C   UNL     1       0.654   1.555   0.339  0.00  0.00    +0.002 A 
ATOM     36  C   UNL     1       1.845   0.856   0.316  0.00  0.00    +0.026 A 
ATOM     37  C   UNL     1       1.854  -0.507   0.577  0.00  0.00    +0.051 A 
ATOM     38  C   UNL     1       0.665  -1.165   0.860  0.00  0.00    +0.026 A 
ATOM     39  C   UNL     1      -0.524  -0.461   0.882  0.00  0.00    +0.002 A 
ENDBRANCH  22  37
ENDBRANCH  21  26
ENDBRANCH   1  21
TORSDOF 9
