REMARK  Name = ZINC01045243
REMARK  6 active torsions:
REMARK  status: ('A' for Active; 'I' for Inactive)
REMARK    1  A    between atoms: C_4  and  S_8
REMARK    2  A    between atoms: C_5  and  N_7
REMARK    3  A    between atoms: S_8  and  C_9
REMARK    4  A    between atoms: N_14  and  C_17
REMARK    5  A    between atoms: C_19  and  C_27
REMARK    6  A    between atoms: C_21  and  C_23
REMARK                            x       y       z     vdW  Elec       q    Type
REMARK                         _______ _______ _______ _____ _____    ______ ____
ROOT
ATOM      1  C   UNL     1       5.253   0.642  -0.123  0.00  0.00    +0.147 C 
ATOM      2  C   UNL     1       6.543  -0.200  -0.060  0.00  0.00    +0.120 C 
ATOM      3  C   UNL     1       7.167   0.204   1.257  0.00  0.00    +0.228 C 
ATOM      4  O   UNL     1       8.209  -0.227   1.702  0.00  0.00    -0.275 OA
ATOM      5  N   UNL     1       6.387   1.115   1.853  0.00  0.00    -0.209 N 
ATOM      6  C   UNL     1       5.282   1.438   1.163  0.00  0.00    +0.240 C 
ATOM      7  O   UNL     1       4.440   2.238   1.513  0.00  0.00    -0.274 OA
ENDROOT
BRANCH   5   8
ATOM      8  C   UNL     1       6.699   1.685   3.095  0.00  0.00    +0.045 A 
ATOM      9  C   UNL     1       7.794   2.530   3.217  0.00  0.00    +0.036 A 
ATOM     10  C   UNL     1       8.099   3.091   4.442  0.00  0.00    +0.057 A 
ATOM     11  C   UNL     1       7.315   2.811   5.546  0.00  0.00    +0.024 A 
ATOM     12  C   UNL     1       6.224   1.970   5.428  0.00  0.00    +0.057 A 
ATOM     13  C   UNL     1       5.910   1.411   4.204  0.00  0.00    +0.036 A 
BRANCH  12  14
ATOM     14  C   UNL     1       5.372   1.669   6.633  0.00  0.00    +0.417 C 
ATOM     15  F   UNL     1       5.880   2.349   7.745  0.00  0.00    -0.166 F 
ATOM     16  F   UNL     1       4.058   2.085   6.392  0.00  0.00    -0.166 F 
ATOM     17  F   UNL     1       5.386   0.292   6.882  0.00  0.00    -0.166 F 
ENDBRANCH  12  14
BRANCH  10  18
ATOM     18  C   UNL     1       9.288   4.007   4.575  0.00  0.00    +0.417 C 
ATOM     19  F   UNL     1       8.889   5.326   4.333  0.00  0.00    -0.166 F 
ATOM     20  F   UNL     1       9.810   3.908   5.869  0.00  0.00    -0.166 F 
ATOM     21  F   UNL     1      10.267   3.639   3.647  0.00  0.00    -0.166 F 
ENDBRANCH  10  18
ENDBRANCH   5   8
BRANCH   1  22
ATOM     22  S   UNL     1       3.791  -0.430  -0.178  0.00  0.00    -0.110 S 
BRANCH  22  26
ATOM     23  C   UNL     1       0.323   2.462  -0.574  0.00  0.00    +0.002 A 
ATOM     24  C   UNL     1       1.619   2.939  -0.501  0.00  0.00    +0.001 A 
ATOM     25  C   UNL     1       2.678   2.060  -0.380  0.00  0.00    +0.016 A 
ATOM     26  C   UNL     1       2.443   0.693  -0.331  0.00  0.00    +0.029 A 
ATOM     27  C   UNL     1       1.135   0.212  -0.404  0.00  0.00    +0.038 A 
ATOM     28  C   UNL     1       0.079   1.102  -0.525  0.00  0.00    +0.024 A 
BRANCH  27  29
ATOM     29  N   UNL     1       0.891  -1.166  -0.356  0.00  0.00    -0.357 N 
ATOM     30  H   UNL     1       1.631  -1.787  -0.271  0.00  0.00    +0.142 HD
ATOM     31  H   UNL     1      -0.019  -1.499  -0.406  0.00  0.00    +0.142 HD
ENDBRANCH  27  29
ENDBRANCH  22  26
ENDBRANCH   1  22
TORSDOF 6
