REMARK  Name = ZINC35723958
REMARK  4 active torsions:
REMARK  status: ('A' for Active; 'I' for Inactive)
REMARK    1  A    between atoms: C_7  and  S_11
REMARK    2  A    between atoms: S_11  and  C_12
REMARK    3  A    between atoms: C_18  and  C_20
REMARK    4  A    between atoms: C_20  and  N_21
REMARK                            x       y       z     vdW  Elec       q    Type
REMARK                         _______ _______ _______ _____ _____    ______ ____
ROOT
ATOM      1  S   UNL     1       2.652  -2.699   2.818  0.00  0.00    -0.082 S 
ENDROOT
BRANCH   1   8
ATOM      2  C   UNL     1      -0.019   1.523   0.010  0.00  0.00    +0.002 C 
ATOM      3  C   UNL     1       1.401   2.081  -0.000  0.00  0.00    +0.008 C 
ATOM      4  C   UNL     1       2.313   1.154  -0.810  0.00  0.00    +0.076 C 
ATOM      5  C   UNL     1       2.868   0.091   0.102  0.00  0.00    +0.134 A 
ATOM      6  N   UNL     1       4.104  -0.303   0.193  0.00  0.00    -0.134 NA
ATOM      7  N   UNL     1       4.202  -1.242   1.067  0.00  0.00    -0.122 NA
ATOM      8  C   UNL     1       3.022  -1.493   1.589  0.00  0.00    +0.192 A 
ATOM      9  N   UNL     1       2.140  -0.643   0.995  0.00  0.00    -0.306 N 
ATOM     10  C   UNL     1       0.707  -0.519   1.260  0.00  0.00    +0.125 C 
ATOM     11  C   UNL     1       0.002  -0.004   0.002  0.00  0.00    +0.022 C 
ENDBRANCH   1   8
BRANCH   1  12
ATOM     12  C   UNL     1       4.254  -3.474   3.168  0.00  0.00    +0.056 C 
ATOM     13  C   UNL     1       5.195  -2.442   3.793  0.00  0.00    +0.015 C 
ATOM     14  C   UNL     1       6.546  -3.096   4.089  0.00  0.00    +0.001 C 
ATOM     15  C   UNL     1       6.348  -4.260   5.062  0.00  0.00    +0.000 C 
ATOM     16  C   UNL     1       5.407  -5.292   4.437  0.00  0.00    +0.003 C 
ATOM     17  C   UNL     1       4.056  -4.638   4.142  0.00  0.00    -0.015 C 
BRANCH  17  18
ATOM     18  C   UNL     1       3.115  -5.671   3.517  0.00  0.00    -0.082 C 
BRANCH  18  19
ATOM     19  N   UNL     1       2.830  -6.729   4.495  0.00  0.00    +0.378 N 
ATOM     20  H   UNL     1       3.692  -7.178   4.766  0.00  0.00    -0.090 HD
ATOM     21  H   UNL     1       2.392  -6.324   5.310  0.00  0.00    -0.090 HD
ATOM     22  H   UNL     1       2.210  -7.409   4.083  0.00  0.00    -0.090 HD
ENDBRANCH  18  19
ENDBRANCH  17  18
ENDBRANCH   1  12
TORSDOF 4
