REMARK  Name = ZINC01876716
REMARK  10 active torsions:
REMARK  status: ('A' for Active; 'I' for Inactive)
REMARK    1  A    between atoms: C_4  and  C_7
REMARK    2  A    between atoms: C_7  and  O_8
REMARK    3  A    between atoms: O_8  and  C_9
REMARK    4  A    between atoms: C_14  and  C_15
REMARK    5  A    between atoms: N_16  and  N_17
REMARK    6  A    between atoms: C_18  and  C_20
REMARK    7  A    between atoms: C_20  and  S_21
REMARK    8  A    between atoms: S_21  and  C_22
REMARK    9  A    between atoms: C_25  and  C_33
REMARK   10  A    between atoms: N_26  and  C_27
REMARK                            x       y       z     vdW  Elec       q    Type
REMARK                         _______ _______ _______ _____ _____    ______ ____
ROOT
ATOM      1  N   UNL     1       3.183  -0.407   4.916  0.00  0.00    -0.206 N 
ATOM      2  C   UNL     1       2.015   0.246   4.762  0.00  0.00    +0.242 C 
ATOM      3  O   UNL     1       1.593   0.481   3.650  0.00  0.00    -0.273 OA
ATOM      4  H   UNL     1       3.521  -0.595   5.806  0.00  0.00    +0.177 HD
ENDROOT
BRANCH   1   6
ATOM      5  C   UNL     1       5.036  -1.445   3.938  0.00  0.00    +0.142 C 
ATOM      6  N   UNL     1       3.911  -0.815   3.790  0.00  0.00    -0.188 NA
BRANCH   5  12
ATOM      7  C   UNL     1       5.318  -1.605   1.466  0.00  0.00    +0.130 A 
ATOM      8  C   UNL     1       6.048  -2.007   0.360  0.00  0.00    +0.046 A 
ATOM      9  C   UNL     1       7.245  -2.677   0.526  0.00  0.00    +0.004 A 
ATOM     10  C   UNL     1       7.724  -2.951   1.796  0.00  0.00    +0.001 A 
ATOM     11  C   UNL     1       7.010  -2.557   2.908  0.00  0.00    +0.013 A 
ATOM     12  C   UNL     1       5.802  -1.874   2.754  0.00  0.00    +0.036 A 
BRANCH   7  13
ATOM     13  O   UNL     1       4.141  -0.946   1.304  0.00  0.00    -0.487 OA
BRANCH  13  14
ATOM     14  C   UNL     1       3.711  -0.707  -0.038  0.00  0.00    +0.264 C 
BRANCH  14  18
ATOM     15  C   UNL     1      -0.017   1.378   0.010  0.00  0.00    +0.000 A 
ATOM     16  C   UNL     1       1.171   2.086   0.002  0.00  0.00    +0.000 A 
ATOM     17  C   UNL     1       2.377   1.411  -0.013  0.00  0.00    +0.007 A 
ATOM     18  C   UNL     1       2.396   0.029  -0.020  0.00  0.00    -0.010 A 
ATOM     19  C   UNL     1       1.208  -0.679  -0.012  0.00  0.00    +0.007 A 
ATOM     20  C   UNL     1       0.002  -0.004   0.002  0.00  0.00    +0.000 A 
ENDBRANCH  14  18
ENDBRANCH  13  14
ENDBRANCH   7  13
ENDBRANCH   5  12
ENDBRANCH   1   6
BRANCH   2  21
ATOM     21  C   UNL     1       1.232   0.685   5.973  0.00  0.00    +0.174 C 
BRANCH  21  22
ATOM     22  S   UNL     1      -0.281   1.531   5.441  0.00  0.00    -0.076 S 
BRANCH  22  23
ATOM     23  C   UNL     1      -1.074   1.976   6.950  0.00  0.00    +0.197 A 
ATOM     24  N   UNL     1      -0.631   1.736   8.164  0.00  0.00    -0.122 NA
ATOM     25  N   UNL     1      -1.457   2.196   9.035  0.00  0.00    -0.128 NA
ATOM     26  C   UNL     1      -2.478   2.759   8.433  0.00  0.00    +0.169 A 
ATOM     27  N   UNL     1      -2.263   2.642   7.077  0.00  0.00    -0.270 N 
BRANCH  26  28
ATOM     28  C   UNL     1      -3.638   3.403   9.086  0.00  0.00    +0.020 A 
ATOM     29  C   UNL     1      -4.793   3.675   8.352  0.00  0.00    +0.013 A 
ATOM     30  C   UNL     1      -5.872   4.276   8.967  0.00  0.00    +0.021 A 
ATOM     31  C   UNL     1      -5.810   4.609  10.310  0.00  0.00    +0.041 A 
ATOM     32  C   UNL     1      -4.666   4.341  11.043  0.00  0.00    +0.021 A 
ATOM     33  C   UNL     1      -3.583   3.735  10.441  0.00  0.00    +0.013 A 
ATOM     34 CL   UNL     1      -7.171   5.365  11.077  0.00  0.00    -0.084 Cl
ENDBRANCH  26  28
BRANCH  27  35
ATOM     35  C   UNL     1      -3.091   3.103   6.044  0.00  0.00    +0.051 A 
ATOM     36  C   UNL     1      -3.291   4.466   5.870  0.00  0.00    +0.026 A 
ATOM     37  C   UNL     1      -4.107   4.918   4.852  0.00  0.00    +0.002 A 
ATOM     38  C   UNL     1      -4.724   4.015   4.006  0.00  0.00    +0.000 A 
ATOM     39  C   UNL     1      -4.527   2.657   4.177  0.00  0.00    +0.002 A 
ATOM     40  C   UNL     1      -3.707   2.199   5.190  0.00  0.00    +0.026 A 
ENDBRANCH  27  35
ENDBRANCH  22  23
ENDBRANCH  21  22
ENDBRANCH   2  21
TORSDOF 10
