REMARK  Name = ZINC08901456
REMARK  5 active torsions:
REMARK  status: ('A' for Active; 'I' for Inactive)
REMARK    1  A    between atoms: C_3  and  C_24
REMARK    2  A    between atoms: C_5  and  C_6
REMARK    3  A    between atoms: C_7  and  C_8
REMARK    4  A    between atoms: N_10  and  C_11
REMARK    5  A    between atoms: C_12  and  C_21
REMARK                            x       y       z     vdW  Elec       q    Type
REMARK                         _______ _______ _______ _____ _____    ______ ____
ROOT
ATOM      1  C   UNL     1       1.147   1.655   0.000  0.00  0.00    +0.242 C 
ATOM      2  O   UNL     1       1.130   2.873   0.007  0.00  0.00    -0.270 OA
ATOM      3  N   UNL     1      -0.011   0.966   0.007  0.00  0.00    -0.276 N 
ATOM      4  H   UNL     1       0.002  -0.004   0.002  0.00  0.00    +0.156 HD
ENDROOT
BRANCH   3   5
ATOM      5  C   UNL     1      -1.220   1.642   0.017  0.00  0.00    +0.085 A 
ATOM      6  C   UNL     1      -2.502   1.115   0.014  0.00  0.00    +0.068 A 
ATOM      7  C   UNL     1      -3.619   2.050   0.034  0.00  0.00    -0.023 A 
ATOM      8  C   UNL     1      -3.269   3.354   0.035  0.00  0.00    -0.004 A 
ATOM      9  S   UNL     1      -1.497   3.351   0.027  0.00  0.00    -0.077 S 
ATOM     10  C   UNL     1      -4.176   4.545   0.028  0.00  0.00    +0.043 C 
ATOM     11  C   UNL     1      -5.249   4.371   1.111  0.00  0.00    +0.005 C 
ATOM     12  C   UNL     1      -6.441   3.643   0.496  0.00  0.00    +0.001 C 
ATOM     13  C   UNL     1      -5.963   2.659  -0.570  0.00  0.00    +0.005 C 
ATOM     14  C   UNL     1      -5.071   1.591   0.053  0.00  0.00    +0.037 C 
BRANCH   6  15
ATOM     15  C   UNL     1      -2.726  -0.334  -0.003  0.00  0.00    +0.244 C 
ATOM     16  O   UNL     1      -2.817  -0.948   1.044  0.00  0.00    -0.270 OA
ATOM     17  N   UNL     1      -2.833  -0.985  -1.178  0.00  0.00    -0.325 N 
ATOM     18  H   UNL     1      -2.761  -0.495  -2.013  0.00  0.00    +0.145 HD
ATOM     19  H   UNL     1      -2.981  -1.943  -1.190  0.00  0.00    +0.145 HD
ENDBRANCH   6  15
ENDBRANCH   3   5
BRANCH   1  21
ATOM     20  C   UNL     1       3.547   1.661  -0.023  0.00  0.00    +0.051 C 
ATOM     21  C   UNL     1       2.381   0.965  -0.015  0.00  0.00    +0.071 C 
BRANCH  20  26
ATOM     22  C   UNL     1       6.036   1.550  -0.047  0.00  0.00    +0.050 A 
ATOM     23  C   UNL     1       6.963   0.504  -0.062  0.00  0.00    +0.050 A 
ATOM     24  C   UNL     1       6.252  -0.663  -0.061  0.00  0.00    +0.136 A 
ATOM     25  O   UNL     1       4.940  -0.370  -0.041  0.00  0.00    -0.455 OA
ATOM     26  C   UNL     1       4.781   0.970  -0.038  0.00  0.00    +0.129 A 
BRANCH  24  27
ATOM     27  C   UNL     1       6.830  -2.021  -0.074  0.00  0.00    +0.020 A 
ATOM     28  C   UNL     1       8.216  -2.193  -0.095  0.00  0.00    +0.031 A 
ATOM     29  C   UNL     1       8.750  -3.466  -0.102  0.00  0.00    +0.043 A 
ATOM     30  C   UNL     1       7.915  -4.571  -0.100  0.00  0.00    +0.040 A 
ATOM     31  C   UNL     1       6.540  -4.407  -0.085  0.00  0.00    +0.043 A 
ATOM     32  C   UNL     1       5.993  -3.139  -0.072  0.00  0.00    +0.031 A 
ATOM     33 CL   UNL     1       5.502  -5.798  -0.084  0.00  0.00    -0.083 Cl
ATOM     34 CL   UNL     1      10.473  -3.683  -0.121  0.00  0.00    -0.083 Cl
ENDBRANCH  24  27
ENDBRANCH  20  26
ENDBRANCH   1  21
TORSDOF 5
