REMARK  Name = ZINC13119742
REMARK  9 active torsions:
REMARK  status: ('A' for Active; 'I' for Inactive)
REMARK    1  A    between atoms: C_1  and  C_2
REMARK    2  A    between atoms: C_2  and  C_27
REMARK    3  A    between atoms: N_5  and  N_9
REMARK    4  A    between atoms: C_10  and  C_12
REMARK    5  A    between atoms: C_12  and  C_14
REMARK    6  A    between atoms: C_12  and  S_20
REMARK    7  A    between atoms: S_20  and  C_21
REMARK    8  A    between atoms: C_30  and  O_33
REMARK    9  A    between atoms: O_33  and  C_34
REMARK                            x       y       z     vdW  Elec       q    Type
REMARK                         _______ _______ _______ _____ _____    ______ ____
ROOT
ATOM      1  N   UNL     1      -1.319  -1.945   2.799  0.00  0.00    -0.222 N 
ATOM      2  C   UNL     1      -1.399  -1.440   4.045  0.00  0.00    +0.247 C 
ATOM      3  O   UNL     1      -0.843  -0.396   4.314  0.00  0.00    -0.273 OA
ATOM      4  H   UNL     1      -1.763  -2.780   2.584  0.00  0.00    +0.174 HD
ENDROOT
BRANCH   1   9
ATOM      5  C   UNL     1      -0.039  -0.533  -1.433  0.00  0.00    +0.047 C 
ATOM      6  C   UNL     1       0.002  -0.004   0.002  0.00  0.00    +0.137 C 
ATOM      7  C   UNL     1      -1.154  -0.558   0.811  0.00  0.00    +0.267 C 
ATOM      8  O   UNL     1      -2.337  -0.398   0.602  0.00  0.00    -0.271 OA
ATOM      9  N   UNL     1      -0.593  -1.264   1.812  0.00  0.00    -0.137 N 
ATOM     10  C   UNL     1       0.743  -1.234   1.749  0.00  0.00    +0.327 C 
ATOM     11  O   UNL     1       1.470  -1.797   2.544  0.00  0.00    -0.251 OA
ATOM     12  N   UNL     1       1.192  -0.510   0.708  0.00  0.00    -0.280 N 
ATOM     13  H   UNL     1       2.119  -0.353   0.468  0.00  0.00    +0.152 HD
BRANCH   6  14
ATOM     14  C   UNL     1      -0.018   1.503   0.010  0.00  0.00    -0.015 A 
ATOM     15  C   UNL     1      -1.226   2.177   0.020  0.00  0.00    +0.010 A 
ATOM     16  C   UNL     1      -1.247   3.558   0.033  0.00  0.00    +0.046 A 
ATOM     17  C   UNL     1      -0.056   4.269   0.026  0.00  0.00    +0.120 A 
ATOM     18  C   UNL     1       1.154   3.591   0.011  0.00  0.00    +0.046 A 
ATOM     19  C   UNL     1       1.170   2.209   0.003  0.00  0.00    +0.010 A 
BRANCH  17  20
ATOM     20  O   UNL     1      -0.074   5.628   0.033  0.00  0.00    -0.495 OA
ATOM     21  C   UNL     1      -1.356   6.259   0.049  0.00  0.00    +0.277 C 
ENDBRANCH  17  20
ENDBRANCH   6  14
ENDBRANCH   1   9
BRANCH   2  22
ATOM     22  C   UNL     1      -2.180  -2.172   5.106  0.00  0.00    +0.168 C 
BRANCH  22  23
ATOM     23  C   UNL     1      -1.303  -3.219   5.742  0.00  0.00    -0.025 A 
ATOM     24  C   UNL     1      -0.134  -2.847   6.379  0.00  0.00    +0.005 A 
ATOM     25  C   UNL     1       0.668  -3.808   6.967  0.00  0.00    +0.000 A 
ATOM     26  C   UNL     1       0.306  -5.140   6.910  0.00  0.00    +0.000 A 
ATOM     27  C   UNL     1      -0.860  -5.513   6.268  0.00  0.00    +0.000 A 
ATOM     28  C   UNL     1      -1.665  -4.552   5.685  0.00  0.00    +0.005 A 
ENDBRANCH  22  23
BRANCH  22  29
ATOM     29  S   UNL     1      -2.732  -0.995   6.371  0.00  0.00    -0.108 S 
BRANCH  29  30
ATOM     30  C   UNL     1      -3.740  -1.964   7.444  0.00  0.00    +0.009 A 
ATOM     31  C   UNL     1      -3.938  -3.314   7.182  0.00  0.00    +0.015 A 
ATOM     32  C   UNL     1      -4.723  -4.072   8.028  0.00  0.00    +0.001 A 
ATOM     33  C   UNL     1      -5.324  -3.485   9.128  0.00  0.00    +0.000 A 
ATOM     34  C   UNL     1      -5.134  -2.140   9.388  0.00  0.00    +0.001 A 
ATOM     35  C   UNL     1      -4.345  -1.378   8.550  0.00  0.00    +0.015 A 
ENDBRANCH  29  30
ENDBRANCH  22  29
ENDBRANCH   2  22
TORSDOF 7
