REMARK  Name = ZINC12332480
REMARK  13 active torsions:
REMARK  status: ('A' for Active; 'I' for Inactive)
REMARK    1  A    between atoms: C_1  and  C_2
REMARK    2  A    between atoms: C_2  and  C_3
REMARK    3  A    between atoms: C_3  and  C_4
REMARK    4  A    between atoms: C_4  and  N_5
REMARK    5  A    between atoms: N_5  and  C_6
REMARK    6  A    between atoms: N_5  and  S_7
REMARK    7  A    between atoms: S_7  and  C_10
REMARK    8  A    between atoms: C_11  and  C_27
REMARK    9  A    between atoms: C_18  and  C_19
REMARK   10  A    between atoms: C_18  and  N_58
REMARK   11  A    between atoms: C_22  and  O_26
REMARK   12  A    between atoms: C_27  and  O_29
REMARK   13  A    between atoms: O_29  and  C_30
REMARK                            x       y       z     vdW  Elec       q    Type
REMARK                         _______ _______ _______ _____ _____    ______ ____
ROOT
ATOM      1  C   UNL     1      -3.404   0.957  -1.172  0.00  0.00    +0.157 A 
ATOM      2  C   UNL     1      -4.635   0.407  -1.462  0.00  0.00    +0.096 A 
ATOM      3  C   UNL     1      -5.774   0.862  -0.691  0.00  0.00    -0.025 A 
ATOM      4  C   UNL     1      -5.501   1.806   0.241  0.00  0.00    -0.021 A 
ATOM      5  S   UNL     1      -3.759   2.077   0.102  0.00  0.00    -0.074 S 
ATOM      6  C   UNL     1      -6.483   2.454   1.164  0.00  0.00    -0.035 C 
ATOM      7  C   UNL     1      -8.003   0.739   0.376  0.00  0.00    -0.073 C 
ATOM      8  C   UNL     1      -7.201   0.358  -0.872  0.00  0.00    +0.018 C 
ATOM      9  N   UNL     1      -7.844   2.184   0.639  0.00  0.00    +0.386 N 
ATOM     10  H   UNL     1      -7.972   2.700  -0.239  0.00  0.00    -0.081 HD
ENDROOT
BRANCH   1  11
ATOM     11  S   UNL     1      -1.847   0.610  -1.921  0.00  0.00    +0.068 S 
ATOM     12  O   UNL     1      -1.937   1.056  -3.268  0.00  0.00    -0.152 OA
ATOM     13  O   UNL     1      -1.523  -0.731  -1.583  0.00  0.00    -0.152 OA
BRANCH  11  14
ATOM     14  N   UNL     1      -0.721   1.571  -1.179  0.00  0.00    -0.179 NA
ATOM     15  C   UNL     1      -0.434   2.906  -1.709  0.00  0.00    +0.131 C 
BRANCH  14  16
ATOM     16  C   UNL     1      -0.013   1.086   0.008  0.00  0.00    +0.109 C 
BRANCH  16  17
ATOM     17  C   UNL     1      -0.729   1.579   1.267  0.00  0.00    +0.017 C 
BRANCH  17  19
ATOM     18  C   UNL     1      -0.705   1.566   3.765  0.00  0.00    +0.004 C 
ATOM     19  C   UNL     1       0.011   1.072   2.506  0.00  0.00    -0.002 C 
ENDBRANCH  17  19
ENDBRANCH  16  17
ENDBRANCH  14  16
ENDBRANCH  11  14
ENDBRANCH   1  11
BRANCH   2  20
ATOM     20  C   UNL     1      -4.785  -0.609  -2.514  0.00  0.00    +0.342 C 
ATOM     21  O   UNL     1      -4.676  -1.788  -2.239  0.00  0.00    -0.245 OA
BRANCH  20  22
ATOM     22  O   UNL     1      -5.045  -0.233  -3.782  0.00  0.00    -0.464 OA
ATOM     23  C   UNL     1      -5.181  -1.290  -4.768  0.00  0.00    +0.280 C 
ENDBRANCH  20  22
ENDBRANCH   2  20
BRANCH   9  24
ATOM     24  C   UNL     1      -8.861   2.636   1.614  0.00  0.00    -0.042 C 
BRANCH  24  25
ATOM     25  C   UNL     1      -8.822   4.140   1.697  0.00  0.00    -0.062 A 
ATOM     26  C   UNL     1      -9.603   4.899   0.844  0.00  0.00    +0.005 A 
ATOM     27  C   UNL     1      -9.570   6.278   0.917  0.00  0.00    +0.047 A 
ATOM     28  C   UNL     1      -8.752   6.902   1.847  0.00  0.00    +0.135 A 
ATOM     29  C   UNL     1      -7.968   6.139   2.702  0.00  0.00    +0.082 A 
ATOM     30  C   UNL     1      -8.010   4.759   2.628  0.00  0.00    +0.025 A 
ATOM     31 CL   UNL     1      -6.943   6.917   3.868  0.00  0.00    -0.080 Cl
BRANCH  28  32
ATOM     32  O   UNL     1      -8.717   8.259   1.921  0.00  0.00    -0.505 OA
ATOM     33  H   UNL     1      -9.365   8.636   2.532  0.00  0.00    +0.292 HD
ENDBRANCH  28  32
ENDBRANCH  24  25
ENDBRANCH   9  24
TORSDOF 10
