REMARK  Name = ZINC02342287
REMARK  9 active torsions:
REMARK  status: ('A' for Active; 'I' for Inactive)
REMARK    1  A    between atoms: C_1  and  C_2
REMARK    2  A    between atoms: C_9  and  N_24
REMARK    3  A    between atoms: C_10  and  C_13
REMARK    4  A    between atoms: N_17  and  C_21
REMARK    5  A    between atoms: C_21  and  C_22
REMARK    6  A    between atoms: C_30  and  C_32
REMARK    7  A    between atoms: C_32  and  C_33
REMARK    8  A    between atoms: C_33  and  O_35
REMARK    9  A    between atoms: O_35  and  C_36
REMARK                            x       y       z     vdW  Elec       q    Type
REMARK                         _______ _______ _______ _____ _____    ______ ____
ROOT
ATOM      1  C   UNL     1       3.528   2.993   0.553  0.00  0.00    +0.047 C 
ATOM      2  C   UNL     1       3.206   1.521   0.598  0.00  0.00    -0.007 A 
ATOM      3  C   UNL     1       4.189   0.612   0.852  0.00  0.00    +0.008 A 
ATOM      4  C   UNL     1       3.874  -0.754   0.890  0.00  0.00    +0.019 A 
ATOM      5  C   UNL     1       2.604  -1.163   0.676  0.00  0.00    +0.096 A 
ATOM      6  N   UNL     1       1.614  -0.261   0.421  0.00  0.00    -0.267 N 
ATOM      7  C   UNL     1       1.890   1.077   0.377  0.00  0.00    +0.145 A 
ATOM      8  N   UNL     1       0.935   1.974   0.130  0.00  0.00    -0.213 NA
ATOM      9  C   UNL     1      -0.321   1.612  -0.085  0.00  0.00    +0.137 A 
ATOM     10  C   UNL     1      -0.666   0.240  -0.051  0.00  0.00    +0.081 A 
ATOM     11  C   UNL     1       0.355  -0.704   0.212  0.00  0.00    +0.267 A 
ATOM     12  O   UNL     1       0.103  -1.895   0.251  0.00  0.00    -0.267 OA
ENDROOT
BRANCH  10  13
ATOM     13  C   UNL     1      -1.999  -0.178  -0.276  0.00  0.00    +0.037 C 
ATOM     14  C   UNL     1      -2.307  -0.910  -1.386  0.00  0.00    +0.077 C 
ATOM     15  C   UNL     1      -3.566  -1.416  -1.816  0.00  0.00    +0.259 C 
ATOM     16  O   UNL     1      -4.577  -1.219  -1.164  0.00  0.00    -0.269 OA
ATOM     17  N   UNL     1      -3.609  -2.103  -2.945  0.00  0.00    -0.252 N 
ATOM     18  C   UNL     1      -2.486  -2.328  -3.664  0.00  0.00    +0.121 C 
ATOM     19  S   UNL     1      -2.308  -3.188  -5.133  0.00  0.00    -0.027 S 
ATOM     20  S   UNL     1      -1.237  -1.501  -2.691  0.00  0.00    -0.061 S 
BRANCH  17  21
ATOM     21  C   UNL     1      -4.889  -2.633  -3.420  0.00  0.00    +0.141 C 
BRANCH  21  22
ATOM     22  C   UNL     1      -5.102  -4.013  -2.855  0.00  0.00    -0.015 C 
ATOM     23  C   UNL     1      -6.192  -4.284  -2.180  0.00  0.00    +0.005 C 
ENDBRANCH  21  22
ENDBRANCH  17  21
ENDBRANCH  10  13
BRANCH   9  24
ATOM     24  N   UNL     1      -1.283   2.563  -0.343  0.00  0.00    -0.301 N 
ATOM     25  C   UNL     1      -1.300   2.922  -1.771  0.00  0.00    +0.126 C 
ATOM     26  C   UNL     1      -2.565   3.732  -2.059  0.00  0.00    +0.123 C 
ATOM     27  N   UNL     1      -2.693   4.820  -1.094  0.00  0.00    -0.312 N 
ATOM     28  C   UNL     1      -2.035   4.841   0.070  0.00  0.00    +0.234 C 
ATOM     29  O   UNL     1      -2.224   5.769   0.827  0.00  0.00    -0.274 OA
ATOM     30  C   UNL     1      -1.072   3.763   0.478  0.00  0.00    +0.171 C 
ATOM     31  H   UNL     1      -3.283   5.561  -1.307  0.00  0.00    +0.149 HD
BRANCH  30  32
ATOM     32  C   UNL     1      -1.294   3.415   1.951  0.00  0.00    +0.152 C 
BRANCH  32  33
ATOM     33  C   UNL     1      -2.688   2.874   2.135  0.00  0.00    +0.309 C 
ATOM     34  O   UNL     1      -3.388   2.666   1.172  0.00  0.00    -0.251 OA
BRANCH  33  35
ATOM     35  O   UNL     1      -3.154   2.624   3.369  0.00  0.00    -0.468 OA
ATOM     36  C   UNL     1      -4.506   2.105   3.471  0.00  0.00    +0.280 C 
ENDBRANCH  33  35
ENDBRANCH  32  33
ENDBRANCH  30  32
ENDBRANCH   9  24
TORSDOF 7
