REMARK  Name = ZINC01293729
REMARK  9 active torsions:
REMARK  status: ('A' for Active; 'I' for Inactive)
REMARK    1  A    between atoms: C_1  and  C_2
REMARK    2  A    between atoms: C_6  and  N_8
REMARK    3  A    between atoms: C_20  and  S_21
REMARK    4  A    between atoms: S_21  and  C_22
REMARK    5  A    between atoms: C_22  and  C_24
REMARK    6  A    between atoms: C_22  and  C_25
REMARK    7  A    between atoms: C_35  and  C_38
REMARK    8  A    between atoms: C_38  and  C_39
REMARK    9  A    between atoms: C_38  and  C_40
REMARK                            x       y       z     vdW  Elec       q    Type
REMARK                         _______ _______ _______ _____ _____    ______ ____
ROOT
ATOM      1  N   UNL     1       0.050  -2.798   2.393  0.00  0.00    -0.245 N 
ATOM      2  C   UNL     1       0.144  -2.123   3.551  0.00  0.00    +0.268 A 
ATOM      3  O   UNL     1       0.214  -0.908   3.546  0.00  0.00    -0.266 OA
ATOM      4  C   UNL     1       0.160  -2.863   4.833  0.00  0.00    +0.075 A 
ATOM      5  C   UNL     1       0.251  -2.321   6.187  0.00  0.00    -0.018 A 
ATOM      6  C   UNL     1       0.243  -3.244   7.172  0.00  0.00    +0.021 A 
ATOM      7  S   UNL     1       0.120  -4.792   6.332  0.00  0.00    -0.072 S 
ATOM      8  C   UNL     1       0.077  -4.249   4.750  0.00  0.00    +0.102 A 
ATOM      9  N   UNL     1      -0.018  -4.898   3.537  0.00  0.00    -0.249 N 
ATOM     10  C   UNL     1      -0.037  -4.181   2.369  0.00  0.00    +0.245 A 
ATOM     11  N   UNL     1      -0.140  -5.030   1.374  0.00  0.00    -0.109 NA
ATOM     12  N   UNL     1      -0.194  -6.323   1.910  0.00  0.00    -0.120 NA
ATOM     13  C   UNL     1      -0.111  -6.226   3.215  0.00  0.00    +0.199 A 
ATOM     14  C   UNL     1       0.322  -2.963   8.640  0.00  0.00    +0.203 C 
ATOM     15  O   UNL     1       0.080  -1.560   8.832  0.00  0.00    -0.371 OA
ATOM     16  C   UNL     1       0.853  -0.720   7.969  0.00  0.00    +0.126 C 
ATOM     17  C   UNL     1       0.350  -0.840   6.526  0.00  0.00    +0.068 C 
ENDROOT
BRANCH   1  23
ATOM     18  C   UNL     1       2.501  -0.798  -1.371  0.00  0.00    +0.044 C 
ATOM     19  C   UNL     1       1.209  -1.106  -0.660  0.00  0.00    -0.048 A 
ATOM     20  C   UNL     1       0.006  -0.688  -1.200  0.00  0.00    +0.003 A 
ATOM     21  C   UNL     1      -1.181  -0.968  -0.550  0.00  0.00    +0.002 A 
ATOM     22  C   UNL     1      -1.170  -1.667   0.641  0.00  0.00    +0.026 A 
ATOM     23  C   UNL     1       0.035  -2.089   1.186  0.00  0.00    +0.053 A 
ATOM     24  C   UNL     1       1.226  -1.811   0.527  0.00  0.00    +0.029 A 
ENDBRANCH   1  23
BRANCH  16  25
ATOM     25  C   UNL     1       0.724   0.734   8.428  0.00  0.00    +0.012 C 
ATOM     26  C   UNL     1       1.240   0.862   9.863  0.00  0.00    +0.010 C 
ATOM     27  C   UNL     1       1.549   1.634   7.507  0.00  0.00    +0.010 C 
ENDBRANCH  16  25
BRANCH  13  28
ATOM     28  S   UNL     1      -0.133  -7.569   4.356  0.00  0.00    -0.073 S 
BRANCH  28  29
ATOM     29  C   UNL     1      -0.270  -9.038   3.301  0.00  0.00    +0.137 C 
ATOM     30  C   UNL     1       0.992  -9.171   2.446  0.00  0.00    +0.029 C 
BRANCH  29  31
ATOM     31  C   UNL     1      -0.423 -10.264   4.165  0.00  0.00    +0.229 C 
ATOM     32  O   UNL     1      -0.084 -10.231   5.329  0.00  0.00    -0.274 OA
ATOM     33  N   UNL     1      -0.936 -11.396   3.644  0.00  0.00    -0.296 N 
ATOM     34  C   UNL     1      -1.349 -11.461   2.233  0.00  0.00    +0.136 C 
ATOM     35  C   UNL     1      -0.706 -12.700   1.598  0.00  0.00    +0.179 C 
ATOM     36  O   UNL     1      -1.002 -13.846   2.400  0.00  0.00    -0.377 OA
ATOM     37  C   UNL     1      -0.470 -13.786   3.725  0.00  0.00    +0.179 C 
ATOM     38  C   UNL     1      -1.095 -12.605   4.468  0.00  0.00    +0.136 C 
ENDBRANCH  29  31
ENDBRANCH  28  29
ENDBRANCH  13  28
TORSDOF 5
