REMARK  Name = ZINC39363125
REMARK  7 active torsions:
REMARK  status: ('A' for Active; 'I' for Inactive)
REMARK    1  A    between atoms: C_1  and  C_2
REMARK    2  A    between atoms: C_8  and  C_10
REMARK    3  A    between atoms: C_10  and  S_11
REMARK    4  A    between atoms: S_11  and  C_12
REMARK    5  A    between atoms: C_16  and  C_26
REMARK    6  A    between atoms: N_18  and  C_19
REMARK    7  A    between atoms: C_26  and  C_27
REMARK                            x       y       z     vdW  Elec       q    Type
REMARK                         _______ _______ _______ _____ _____    ______ ____
ROOT
ATOM      1  C   UNL     1       0.132  -7.885   4.045  0.00  0.00    +0.276 C 
ATOM      2  N   UNL     1      -1.032  -7.569   4.875  0.00  0.00    -0.156 NA
ATOM      3  N   UNL     1      -0.703  -7.134   5.976  0.00  0.00    -0.166 NA
ATOM      4  C   UNL     1       0.752  -7.064   6.122  0.00  0.00    +0.222 C 
ATOM      5  N   UNL     1       1.320  -7.558   4.853  0.00  0.00    -0.274 N 
ENDROOT
BRANCH   5   6
ATOM      6  C   UNL     1       2.666  -7.686   4.500  0.00  0.00    +0.034 A 
ATOM      7  C   UNL     1       3.659  -7.330   5.404  0.00  0.00    +0.024 A 
ATOM      8  C   UNL     1       4.988  -7.458   5.052  0.00  0.00    +0.022 A 
ATOM      9  C   UNL     1       5.331  -7.939   3.801  0.00  0.00    +0.041 A 
ATOM     10  C   UNL     1       4.344  -8.295   2.899  0.00  0.00    +0.022 A 
ATOM     11  C   UNL     1       3.013  -8.174   3.247  0.00  0.00    +0.024 A 
ATOM     12 CL   UNL     1       7.004  -8.098   3.362  0.00  0.00    -0.084 Cl
ENDBRANCH   5   6
BRANCH   1  13
ATOM     13  S   UNL     1       0.110  -6.881   2.534  0.00  0.00    -0.104 S 
BRANCH  13  14
ATOM     14  C   UNL     1       0.089  -5.172   3.144  0.00  0.00    +0.168 C 
BRANCH  14  22
ATOM     15  C   UNL     1      -0.018   1.503   0.010  0.00  0.00    +0.066 C 
ATOM     16  C   UNL     1       0.002  -0.004   0.002  0.00  0.00    +0.047 A 
ATOM     17  C   UNL     1       0.006  -0.706  -1.158  0.00  0.00    +0.071 A 
ATOM     18  S   UNL     1       0.032  -2.379  -0.535  0.00  0.00    -0.060 S 
ATOM     19  C   UNL     1       0.036  -2.015   1.108  0.00  0.00    +0.165 A 
ATOM     20  N   UNL     1       0.023  -0.700   1.124  0.00  0.00    -0.230 NA
ATOM     21  N   UNL     1       0.053  -2.891   2.187  0.00  0.00    -0.264 N 
ATOM     22  C   UNL     1       0.071  -4.222   1.974  0.00  0.00    +0.229 C 
ATOM     23  O   UNL     1       0.071  -4.655   0.841  0.00  0.00    -0.275 OA
ATOM     24  H   UNL     1       0.053  -2.545   3.093  0.00  0.00    +0.157 HD
ENDBRANCH  14  22
ENDBRANCH  13  14
ENDBRANCH   1  13
BRANCH   4  25
ATOM     25  C   UNL     1       1.187  -5.618   6.366  0.00  0.00    +0.102 C 
BRANCH  25  26
ATOM     26  C   UNL     1       0.669  -5.157   7.704  0.00  0.00    +0.029 A 
ATOM     27  N   UNL     1      -0.601  -4.660   7.815  0.00  0.00    -0.311 N 
ATOM     28  C   UNL     1      -1.073  -4.246   9.005  0.00  0.00    +0.327 A 
ATOM     29  O   UNL     1      -2.205  -3.807   9.081  0.00  0.00    -0.247 OA
ATOM     30  N   UNL     1      -0.311  -4.311  10.112  0.00  0.00    -0.275 N 
ATOM     31  C   UNL     1       0.946  -4.794  10.045  0.00  0.00    +0.254 A 
ATOM     32  O   UNL     1       1.636  -4.853  11.046  0.00  0.00    -0.268 OA
ATOM     33  C   UNL     1       1.454  -5.238   8.800  0.00  0.00    +0.091 A 
ATOM     34  H   UNL     1      -0.667  -4.008  10.962  0.00  0.00    +0.173 HD
ATOM     35  H   UNL     1      -1.166  -4.605   7.028  0.00  0.00    +0.170 HD
ENDBRANCH  25  26
ENDBRANCH   4  25
TORSDOF 6
