REMARK  Name = ZINC45731568
REMARK  12 active torsions:
REMARK  status: ('A' for Active; 'I' for Inactive)
REMARK    1  A    between atoms: C_1  and  C_2
REMARK    2  A    between atoms: C_2  and  N_3
REMARK    3  A    between atoms: N_3  and  C_4
REMARK    4  A    between atoms: N_3  and  C_6
REMARK    5  A    between atoms: C_4  and  C_5
REMARK    6  A    between atoms: C_6  and  C_7
REMARK    7  A    between atoms: C_7  and  N_8
REMARK    8  A    between atoms: N_17  and  C_18
REMARK    9  A    between atoms: C_18  and  C_20
REMARK   10  A    between atoms: C_20  and  N_21
REMARK   11  A    between atoms: C_24  and  C_28
REMARK   12  A    between atoms: C_24  and  C_29
REMARK                            x       y       z     vdW  Elec       q    Type
REMARK                         _______ _______ _______ _____ _____    ______ ____
ROOT
ATOM      1  N   UNL     1       1.751  -3.957   1.750  0.00  0.00    -0.314 N 
ATOM      2  C   UNL     1       0.819  -4.904   2.163  0.00  0.00    +0.068 A 
ATOM      3  C   UNL     1      -0.365  -4.818   2.882  0.00  0.00    +0.028 A 
ATOM      4  C   UNL     1      -1.094  -5.960   3.145  0.00  0.00    +0.002 A 
ATOM      5  C   UNL     1      -0.649  -7.192   2.695  0.00  0.00    +0.002 A 
ATOM      6  C   UNL     1       0.527  -7.288   1.979  0.00  0.00    +0.028 A 
ATOM      7  C   UNL     1       1.268  -6.146   1.708  0.00  0.00    +0.066 A 
ATOM      8  N   UNL     1       2.462  -5.927   1.030  0.00  0.00    -0.326 N 
ATOM      9  C   UNL     1       2.732  -4.596   1.062  0.00  0.00    +0.201 A 
ATOM     10  N   UNL     1       3.793  -4.012   0.510  0.00  0.00    -0.145 NA
ATOM     11  H   UNL     1       3.006  -6.608   0.603  0.00  0.00    +0.169 HD
ENDROOT
BRANCH  10  12
ATOM     12  C   UNL     1       4.626  -4.722  -0.244  0.00  0.00    +0.257 C 
ATOM     13  O   UNL     1       4.371  -5.882  -0.505  0.00  0.00    -0.272 OA
BRANCH  12  14
ATOM     14  C   UNL     1       5.886  -4.089  -0.777  0.00  0.00    +0.215 C 
BRANCH  14  15
ATOM     15  N   UNL     1       6.626  -5.071  -1.573  0.00  0.00    -0.215 N 
ATOM     16  C   UNL     1       7.555  -5.908  -1.070  0.00  0.00    +0.247 C 
ATOM     17  O   UNL     1       7.921  -5.987   0.083  0.00  0.00    -0.273 OA
ATOM     18  C   UNL     1       8.046  -6.730  -2.245  0.00  0.00    +0.113 C 
ATOM     19  N   UNL     1       7.263  -6.212  -3.380  0.00  0.00    -0.285 N 
ATOM     20  C   UNL     1       6.460  -5.251  -2.888  0.00  0.00    +0.310 C 
ATOM     21  O   UNL     1       5.674  -4.616  -3.563  0.00  0.00    -0.252 OA
ATOM     22  C   UNL     1       7.753  -8.215  -2.023  0.00  0.00    +0.042 C 
ATOM     23  H   UNL     1       7.315  -6.507  -4.303  0.00  0.00    +0.151 HD
BRANCH  18  24
ATOM     24  C   UNL     1       9.541  -6.502  -2.474  0.00  0.00    +0.021 C 
ATOM     25  C   UNL     1       9.956  -5.753  -3.742  0.00  0.00    +0.006 C 
ATOM     26  C   UNL     1      10.203  -7.259  -3.627  0.00  0.00    +0.006 C 
ENDBRANCH  18  24
ENDBRANCH  14  15
ENDBRANCH  12  14
ENDBRANCH  10  12
BRANCH   1  27
ATOM     27  C   UNL     1       1.682  -2.516   2.009  0.00  0.00    +0.106 C 
BRANCH  27  28
ATOM     28  C   UNL     1       0.919  -1.831   0.873  0.00  0.00    -0.057 C 
BRANCH  28  29
ATOM     29  N   UNL     1       0.741  -0.408   1.192  0.00  0.00    +0.380 N 
ATOM     30  H   UNL     1       0.277  -0.318   2.084  0.00  0.00    -0.082 HD
BRANCH  29  32
ATOM     31  C   UNL     1       1.879   1.698   1.710  0.00  0.00    -0.017 C 
ATOM     32  C   UNL     1       2.054   0.248   1.256  0.00  0.00    -0.082 C 
ENDBRANCH  29  32
BRANCH  29  33
ATOM     33  C   UNL     1      -0.074   0.230   0.150  0.00  0.00    -0.082 C 
ATOM     34  C   UNL     1      -1.481  -0.372   0.163  0.00  0.00    -0.017 C 
ENDBRANCH  29  33
ENDBRANCH  28  29
ENDBRANCH  27  28
ENDBRANCH   1  27
TORSDOF 9
