REMARK  Name = ZINC53513216
REMARK  10 active torsions:
REMARK  status: ('A' for Active; 'I' for Inactive)
REMARK    1  A    between atoms: C_1  and  C_2
REMARK    2  A    between atoms: N_8  and  C_9
REMARK    3  A    between atoms: C_9  and  C_10
REMARK    4  A    between atoms: C_13  and  C_16
REMARK    5  A    between atoms: C_16  and  N_17
REMARK    6  A    between atoms: C_18  and  C_20
REMARK    7  A    between atoms: C_20  and  C_21
REMARK    8  A    between atoms: C_20  and  C_22
REMARK    9  A    between atoms: C_20  and  N_23
REMARK   10  A    between atoms: N_26  and  C_27
REMARK                            x       y       z     vdW  Elec       q    Type
REMARK                         _______ _______ _______ _____ _____    ______ ____
ROOT
ATOM      1  C   UNL     1       0.865  -0.347   3.613  0.00  0.00    -0.064 A 
ATOM      2  C   UNL     1       0.585  -1.532   4.268  0.00  0.00    +0.002 A 
ATOM      3  C   UNL     1       1.316  -1.895   5.383  0.00  0.00    +0.005 A 
ATOM      4  C   UNL     1       2.329  -1.075   5.843  0.00  0.00    -0.030 A 
ATOM      5  C   UNL     1       2.610   0.110   5.187  0.00  0.00    +0.005 A 
ATOM      6  C   UNL     1       1.881   0.471   4.070  0.00  0.00    +0.002 A 
ENDROOT
BRANCH   1   7
ATOM      7  C   UNL     1       0.067   0.050   2.397  0.00  0.00    -0.043 C 
BRANCH   7  14
ATOM      8  C   UNL     1      -0.019   1.526   0.010  0.00  0.00    -0.013 C 
ATOM      9  C   UNL     1       0.002  -0.004   0.002  0.00  0.00    -0.071 C 
ATOM     10  C   UNL     1       0.717  -0.497  -1.258  0.00  0.00    -0.016 C 
ATOM     11  C   UNL     1       0.735  -2.028  -1.262  0.00  0.00    -0.003 C 
ATOM     12  C   UNL     1       1.410  -2.524   0.020  0.00  0.00    -0.019 C 
ATOM     13  C   UNL     1       0.669  -1.956   1.232  0.00  0.00    -0.078 C 
ATOM     14  N   UNL     1       0.711  -0.490   1.192  0.00  0.00    +0.384 N 
ATOM     15  H   UNL     1       1.671  -0.182   1.159  0.00  0.00    -0.081 HD
ENDBRANCH   7  14
ENDBRANCH   1   7
BRANCH   4  16
ATOM     16  C   UNL     1       3.126  -1.471   7.059  0.00  0.00    +0.139 C 
BRANCH  16  17
ATOM     17  N   UNL     1       4.288  -2.261   6.645  0.00  0.00    -0.309 N 
ATOM     18  C   UNL     1       5.150  -2.728   7.570  0.00  0.00    +0.236 C 
ATOM     19  O   UNL     1       4.964  -2.493   8.745  0.00  0.00    -0.273 OA
ATOM     20  H   UNL     1       4.437  -2.449   5.705  0.00  0.00    +0.149 HD
BRANCH  18  21
ATOM     21  C   UNL     1       6.345  -3.541   7.144  0.00  0.00    +0.106 C 
ATOM     22  C   UNL     1       7.491  -2.601   6.763  0.00  0.00    +0.041 C 
ATOM     23  C   UNL     1       6.787  -4.441   8.299  0.00  0.00    +0.041 C 
BRANCH  21  24
ATOM     24  N   UNL     1       5.987  -4.368   5.989  0.00  0.00    -0.286 N 
ATOM     25  C   UNL     1       6.905  -5.183   5.434  0.00  0.00    +0.300 C 
ATOM     26  O   UNL     1       8.031  -5.232   5.891  0.00  0.00    -0.253 OA
ATOM     27  N   UNL     1       6.575  -5.944   4.371  0.00  0.00    -0.302 N 
ATOM     28  C   UNL     1       7.573  -6.831   3.767  0.00  0.00    +0.129 C 
ATOM     29  H   UNL     1       5.089  -4.329   5.625  0.00  0.00    +0.151 HD
ATOM     30  H   UNL     1       5.677  -5.905   4.007  0.00  0.00    +0.150 HD
ENDBRANCH  21  24
ENDBRANCH  18  21
ENDBRANCH  16  17
ENDBRANCH   4  16
TORSDOF 6
