REMARK  Name = ZINC39941762
REMARK  9 active torsions:
REMARK  status: ('A' for Active; 'I' for Inactive)
REMARK    1  A    between atoms: C_1  and  C_2
REMARK    2  A    between atoms: C_4  and  O_12
REMARK    3  A    between atoms: C_5  and  C_9
REMARK    4  A    between atoms: C_9  and  C_10
REMARK    5  A    between atoms: C_9  and  C_11
REMARK    6  A    between atoms: O_12  and  C_13
REMARK    7  A    between atoms: C_13  and  C_14
REMARK    8  A    between atoms: N_16  and  N_17
REMARK    9  A    between atoms: C_18  and  C_19
REMARK                            x       y       z     vdW  Elec       q    Type
REMARK                         _______ _______ _______ _____ _____    ______ ____
ROOT
ATOM      1  C   UNL     1       0.018  -2.879  -4.780  0.00  0.00    +0.270 C 
ATOM      2  O   UNL     1       0.035  -4.082  -4.626  0.00  0.00    -0.270 OA
ATOM      3  N   UNL     1       0.004  -2.358  -6.023  0.00  0.00    -0.204 N 
ATOM      4  H   UNL     1      -0.010  -1.396  -6.146  0.00  0.00    +0.177 HD
ENDROOT
BRANCH   3   5
ATOM      5  N   UNL     1       0.010  -3.207  -7.138  0.00  0.00    -0.191 NA
ATOM      6  C   UNL     1      -0.003  -2.713  -8.318  0.00  0.00    +0.120 C 
BRANCH   6   7
ATOM      7  C   UNL     1       0.003  -3.626  -9.517  0.00  0.00    +0.141 C 
ATOM      8  C   UNL     1      -1.299  -3.419 -10.266  0.00  0.00    +0.001 C 
ATOM      9  C   UNL     1      -1.215  -3.031 -11.570  0.00  0.00    -0.007 A 
ATOM     10  C   UNL     1      -2.422  -2.808 -12.367  0.00  0.00    +0.009 A 
ATOM     11  C   UNL     1      -2.290  -2.422 -13.662  0.00  0.00    +0.001 A 
ATOM     12  C   UNL     1      -1.034  -2.235 -14.240  0.00  0.00    +0.002 A 
ATOM     13  C   UNL     1       0.123  -2.425 -13.555  0.00  0.00    +0.024 A 
ATOM     14  C   UNL     1       0.098  -2.826 -12.207  0.00  0.00    +0.040 A 
ATOM     15  N   UNL     1       1.240  -3.009 -11.544  0.00  0.00    -0.284 N 
ATOM     16  C   UNL     1       1.288  -3.384 -10.278  0.00  0.00    +0.229 C 
ATOM     17  O   UNL     1       2.361  -3.534  -9.726  0.00  0.00    -0.274 OA
ATOM     18  H   UNL     1       2.076  -2.859 -12.014  0.00  0.00    +0.155 HD
ENDBRANCH   6   7
ENDBRANCH   3   5
BRANCH   1  19
ATOM     19  C   UNL     1       0.011  -1.966  -3.581  0.00  0.00    +0.326 C 
BRANCH  19  20
ATOM     20  O   UNL     1       0.028  -2.749  -2.386  0.00  0.00    -0.482 OA
BRANCH  20  24
ATOM     21  C   UNL     1      -0.018   1.503   0.010  0.00  0.00    +0.045 C 
ATOM     22  C   UNL     1       0.002  -0.004   0.002  0.00  0.00    -0.033 A 
ATOM     23  C   UNL     1       0.006  -0.688  -1.199  0.00  0.00    +0.050 A 
ATOM     24  C   UNL     1       0.025  -2.075  -1.206  0.00  0.00    +0.125 A 
ATOM     25  C   UNL     1       0.041  -2.772  -0.006  0.00  0.00    -0.002 A 
ATOM     26  C   UNL     1       0.037  -2.085   1.192  0.00  0.00    +0.023 A 
ATOM     27  C   UNL     1       0.023  -0.702   1.196  0.00  0.00    +0.021 A 
ATOM     28 BR   UNL     1       0.025   0.237   2.838  0.00  0.00    -0.050 Br
BRANCH  25  29
ATOM     29  C   UNL     1       0.061  -4.279  -0.011  0.00  0.00    +0.016 C 
ATOM     30  C   UNL     1       1.321  -4.774   0.702  0.00  0.00    +0.012 C 
ATOM     31  C   UNL     1      -1.177  -4.809   0.715  0.00  0.00    +0.012 C 
ENDBRANCH  25  29
ENDBRANCH  20  24
ENDBRANCH  19  20
ENDBRANCH   1  19
TORSDOF 6
