REMARK  Name = ZINC40743085
REMARK  7 active torsions:
REMARK  status: ('A' for Active; 'I' for Inactive)
REMARK    1  A    between atoms: C_4  and  C_8
REMARK    2  A    between atoms: C_8  and  O_9
REMARK    3  A    between atoms: O_9  and  C_10
REMARK    4  A    between atoms: C_15  and  C_16
REMARK    5  A    between atoms: C_16  and  N_17
REMARK    6  A    between atoms: N_17  and  C_18
REMARK    7  A    between atoms: C_18  and  C_19
REMARK                            x       y       z     vdW  Elec       q    Type
REMARK                         _______ _______ _______ _____ _____    ______ ____
ROOT
ATOM      1  C   UNL     1       5.321  -1.605   1.466  0.00  0.00    +0.122 A 
ATOM      2  C   UNL     1       6.051  -2.007   0.356  0.00  0.00    +0.047 A 
ATOM      3  C   UNL     1       7.247  -2.676   0.523  0.00  0.00    +0.023 A 
ATOM      4  C   UNL     1       7.718  -2.946   1.796  0.00  0.00    +0.041 A 
ATOM      5  C   UNL     1       6.992  -2.547   2.904  0.00  0.00    +0.025 A 
ATOM      6  C   UNL     1       5.797  -1.871   2.741  0.00  0.00    -0.021 A 
ATOM      7 CL   UNL     1       9.222  -3.788   2.004  0.00  0.00    -0.084 Cl
ENDROOT
BRANCH   1   8
ATOM      8  O   UNL     1       4.143  -0.947   1.303  0.00  0.00    -0.487 OA
BRANCH   8   9
ATOM      9  C   UNL     1       3.713  -0.707  -0.038  0.00  0.00    +0.267 C 
BRANCH   9  13
ATOM     10  C   UNL     1      -0.017   1.378   0.010  0.00  0.00    +0.003 A 
ATOM     11  C   UNL     1       1.171   2.086   0.002  0.00  0.00    +0.020 A 
ATOM     12  C   UNL     1       2.378   1.411  -0.013  0.00  0.00    +0.049 A 
ATOM     13  C   UNL     1       2.398   0.028  -0.021  0.00  0.00    +0.026 A 
ATOM     14  C   UNL     1       1.209  -0.680  -0.013  0.00  0.00    +0.049 A 
ATOM     15  C   UNL     1       0.002  -0.004   0.002  0.00  0.00    +0.020 A 
ATOM     16 CL   UNL     1       1.233  -2.416  -0.023  0.00  0.00    -0.083 Cl
ATOM     17 CL   UNL     1       3.869   2.300  -0.024  0.00  0.00    -0.083 Cl
ENDBRANCH   9  13
ENDBRANCH   8   9
ENDBRANCH   1   8
BRANCH   6  18
ATOM     18  C   UNL     1       5.010  -1.430   3.947  0.00  0.00    -0.043 C 
BRANCH  18  19
ATOM     19  N   UNL     1       3.920  -2.383   4.196  0.00  0.00    +0.383 N 
ATOM     20  H   UNL     1       3.312  -2.416   3.392  0.00  0.00    -0.085 HD
ATOM     21  H   UNL     1       4.306  -3.300   4.364  0.00  0.00    -0.085 HD
BRANCH  19  22
ATOM     22  C   UNL     1       3.152  -1.952   5.372  0.00  0.00    -0.050 C 
BRANCH  22  23
ATOM     23  C   UNL     1       2.017  -2.945   5.631  0.00  0.00    +0.101 C 
ATOM     24  C   UNL     1       1.132  -2.438   6.791  0.00  0.00    +0.032 C 
ATOM     25  C   UNL     1       0.811  -3.749   7.558  0.00  0.00    +0.030 C 
ATOM     26  C   UNL     1       2.127  -4.540   7.353  0.00  0.00    +0.160 C 
ATOM     27  O   UNL     1       2.559  -4.212   6.021  0.00  0.00    -0.378 OA
ENDBRANCH  22  23
ENDBRANCH  19  22
ENDBRANCH  18  19
ENDBRANCH   6  18
TORSDOF 7
