REMARK  Name = ZINC02757266
REMARK  6 active torsions:
REMARK  status: ('A' for Active; 'I' for Inactive)
REMARK    1  A    between atoms: C_1  and  C_2
REMARK    2  A    between atoms: C_3  and  C_22
REMARK    3  A    between atoms: C_5  and  N_9
REMARK    4  A    between atoms: C_6  and  C_7
REMARK    5  A    between atoms: C_10  and  C_12
REMARK    6  A    between atoms: C_13  and  C_14
REMARK                            x       y       z     vdW  Elec       q    Type
REMARK                         _______ _______ _______ _____ _____    ______ ____
ROOT
ATOM      1  N   UNL     1      -0.011   0.966   0.007  0.00  0.00    -0.275 N 
ATOM      2  C   UNL     1       1.147   1.655   0.000  0.00  0.00    +0.241 C 
ATOM      3  O   UNL     1       1.130   2.873   0.007  0.00  0.00    -0.270 OA
ATOM      4  H   UNL     1       0.002  -0.004   0.002  0.00  0.00    +0.156 HD
ENDROOT
BRANCH   1   9
ATOM      5  C   UNL     1      -5.033   1.599   0.035  0.00  0.00    +0.046 C 
ATOM      6  C   UNL     1      -3.597   2.058   0.030  0.00  0.00    -0.021 A 
ATOM      7  C   UNL     1      -3.278   3.365   0.036  0.00  0.00    -0.007 A 
ATOM      8  S   UNL     1      -1.497   3.352   0.035  0.00  0.00    -0.077 S 
ATOM      9  C   UNL     1      -1.221   1.643   0.017  0.00  0.00    +0.090 A 
ATOM     10  C   UNL     1      -2.506   1.113   0.020  0.00  0.00    +0.083 A 
ATOM     11  C   UNL     1      -4.204   4.554   0.047  0.00  0.00    +0.052 C 
BRANCH  10  12
ATOM     12  C   UNL     1      -2.736  -0.300   0.013  0.00  0.00    +0.102 C 
ATOM     13  N   UNL     1      -2.918  -1.421   0.007  0.00  0.00    -0.191 NA
ENDBRANCH  10  12
ENDBRANCH   1   9
BRANCH   2  14
ATOM     14  C   UNL     1       2.423   0.942  -0.016  0.00  0.00    +0.068 C 
ATOM     15  C   UNL     1       3.583   1.632  -0.023  0.00  0.00    +0.014 C 
BRANCH  15  16
ATOM     16  C   UNL     1       4.866   0.914  -0.040  0.00  0.00    -0.006 A 
ATOM     17  C   UNL     1       4.889  -0.485  -0.041  0.00  0.00    +0.011 A 
ATOM     18  C   UNL     1       6.095  -1.151  -0.062  0.00  0.00    +0.020 A 
ATOM     19  C   UNL     1       7.285  -0.439  -0.070  0.00  0.00    +0.042 A 
ATOM     20  C   UNL     1       7.271   0.946  -0.062  0.00  0.00    +0.040 A 
ATOM     21  C   UNL     1       6.071   1.627  -0.047  0.00  0.00    +0.049 A 
ATOM     22 CL   UNL     1       6.055   3.363  -0.037  0.00  0.00    -0.083 Cl
ATOM     23 CL   UNL     1       8.799  -1.288  -0.089  0.00  0.00    -0.083 Cl
ENDBRANCH  15  16
ENDBRANCH   2  14
TORSDOF 4
