REMARK  Name = ZINC31812978
REMARK  8 active torsions:
REMARK  status: ('A' for Active; 'I' for Inactive)
REMARK    1  A    between atoms: C_1  and  C_2
REMARK    2  A    between atoms: N_4  and  C_5
REMARK    3  A    between atoms: C_14  and  C_15
REMARK    4  A    between atoms: C_15  and  C_17
REMARK    5  A    between atoms: C_15  and  N_20
REMARK    6  A    between atoms: C_26  and  C_28
REMARK    7  A    between atoms: C_31  and  O_34
REMARK    8  A    between atoms: O_34  and  C_35
REMARK                            x       y       z     vdW  Elec       q    Type
REMARK                         _______ _______ _______ _____ _____    ______ ____
ROOT
ATOM      1  C   UNL     1       0.219   0.588   0.268  0.00  0.00    +0.080 C 
ENDROOT
BRANCH   1  11
ATOM      2  C   UNL     1      -3.893  -1.016  -2.817  0.00  0.00    +0.035 A 
ATOM      3  C   UNL     1      -3.919  -0.798  -1.440  0.00  0.00    +0.024 A 
ATOM      4  C   UNL     1      -2.793  -0.390  -0.784  0.00  0.00    +0.012 A 
ATOM      5  C   UNL     1      -1.608  -0.189  -1.494  0.00  0.00    +0.002 A 
ATOM      6  C   UNL     1      -1.575  -0.403  -2.884  0.00  0.00    +0.048 A 
ATOM      7  C   UNL     1      -2.731  -0.815  -3.539  0.00  0.00    +0.049 A 
ATOM      8  N   UNL     1      -0.291  -0.137  -3.307  0.00  0.00    -0.360 N 
ATOM      9  H   UNL     1      -0.029  -0.244  -4.369  0.00  0.00    +0.165 HD
ATOM     10  C   UNL     1       0.480   0.242  -2.240  0.00  0.00    +0.086 A 
ATOM     11  C   UNL     1      -0.256   0.234  -1.118  0.00  0.00    -0.025 A 
BRANCH   2  15
ATOM     12  C   UNL     1      -6.210  -2.633  -5.306  0.00  0.00    +0.109 C 
ATOM     13  C   UNL     1      -4.970  -2.268  -4.531  0.00  0.00    +0.214 C 
ATOM     14  O   UNL     1      -3.895  -2.725  -4.857  0.00  0.00    -0.276 OA
ATOM     15  N   UNL     1      -5.056  -1.435  -3.475  0.00  0.00    -0.286 N 
ATOM     16  H   UNL     1      -6.040  -1.083  -3.131  0.00  0.00    +0.155 HD
ENDBRANCH   2  15
ENDBRANCH   1  11
BRANCH   1  17
ATOM     17  N   UNL     1       1.665   0.349   0.366  0.00  0.00    +0.395 N 
ATOM     18  C   UNL     1       1.983  -1.062   0.108  0.00  0.00    -0.071 C 
ATOM     19  C   UNL     1       3.481  -1.230  -0.160  0.00  0.00    +0.038 C 
ATOM     20  C   UNL     1       4.248  -0.572   0.985  0.00  0.00    +0.049 A 
ATOM     21  C   UNL     1       3.600   0.322   1.788  0.00  0.00    -0.004 A 
ATOM     22  S   UNL     1       4.860   0.794   2.942  0.00  0.00    -0.074 S 
ATOM     23  C   UNL     1       6.156  -0.237   2.261  0.00  0.00    +0.109 A 
ATOM     24  N   UNL     1       5.520  -0.819   1.257  0.00  0.00    -0.244 NA
ATOM     25  C   UNL     1       2.182   0.765   1.685  0.00  0.00    -0.032 C 
ATOM     26  H   UNL     1       2.155   0.957  -0.409  0.00  0.00    -0.080 HD
BRANCH  23  27
ATOM     27  C   UNL     1       7.558  -0.395   2.702  0.00  0.00    +0.007 A 
ATOM     28  C   UNL     1       8.033   0.329   3.798  0.00  0.00    +0.014 A 
ATOM     29  C   UNL     1       9.339   0.174   4.210  0.00  0.00    +0.046 A 
ATOM     30  C   UNL     1      10.186  -0.691   3.529  0.00  0.00    +0.120 A 
ATOM     31  C   UNL     1       9.719  -1.408   2.435  0.00  0.00    +0.046 A 
ATOM     32  C   UNL     1       8.413  -1.263   2.021  0.00  0.00    +0.014 A 
BRANCH  30  33
ATOM     33  O   UNL     1      11.475  -0.836   3.934  0.00  0.00    -0.495 OA
ATOM     34  C   UNL     1      11.889  -0.069   5.067  0.00  0.00    +0.277 C 
ENDBRANCH  30  33
ENDBRANCH  23  27
ENDBRANCH   1  17
BRANCH   1  35
ATOM     35  C   UNL     1      -0.070   2.042   0.542  0.00  0.00    +0.347 C 
ATOM     36  O   UNL     1       0.761   2.881   0.286  0.00  0.00    -0.248 OA
ATOM     37  O   UNL     1      -1.249   2.404   1.070  0.00  0.00    -0.248 OA
ENDBRANCH   1  35
TORSDOF 6
