REMARK  Name = ZINC19638545
REMARK  7 active torsions:
REMARK  status: ('A' for Active; 'I' for Inactive)
REMARK    1  A    between atoms: C_1  and  C_2
REMARK    2  A    between atoms: C_3  and  C_28
REMARK    3  A    between atoms: C_4  and  C_21
REMARK    4  A    between atoms: C_10  and  C_15
REMARK    5  A    between atoms: C_24  and  O_27
REMARK    6  A    between atoms: C_28  and  O_30
REMARK    7  A    between atoms: O_30  and  C_31
REMARK                            x       y       z     vdW  Elec       q    Type
REMARK                         _______ _______ _______ _____ _____    ______ ____
ROOT
ATOM      1  C   UNL     1       7.477   1.650   2.524  0.00  0.00    +0.061 C 
ATOM      2  C   UNL     1       6.503   2.609   1.889  0.00  0.00    +0.016 C 
ATOM      3  C   UNL     1       6.079   2.395   0.632  0.00  0.00    +0.065 C 
ATOM      4  C   UNL     1       5.103   3.323  -0.029  0.00  0.00    +0.092 C 
ATOM      5  C   UNL     1       5.042   4.647   0.691  0.00  0.00    +0.024 C 
ATOM      6  C   UNL     1       5.514   4.769   1.950  0.00  0.00    +0.016 C 
ATOM      7  N   UNL     1       6.058   3.692   2.596  0.00  0.00    -0.321 N 
ATOM      8  C   UNL     1       5.460   6.091   2.676  0.00  0.00    +0.059 C 
ATOM      9  C   UNL     1       4.248   6.892   2.195  0.00  0.00    +0.032 C 
ATOM     10  C   UNL     1       4.368   7.091   0.680  0.00  0.00    +0.088 C 
ATOM     11  C   UNL     1       4.480   5.745   0.017  0.00  0.00    +0.162 C 
ATOM     12  O   UNL     1       4.077   5.605  -1.121  0.00  0.00    -0.292 OA
ATOM     13  H   UNL     1       6.136   3.702   3.693  0.00  0.00    +0.152 HD
ENDROOT
BRANCH   9  14
ATOM     14  C   UNL     1       4.223   8.234   2.881  0.00  0.00    -0.044 A 
ATOM     15  C   UNL     1       5.294   9.098   2.748  0.00  0.00    +0.004 A 
ATOM     16  C   UNL     1       5.269  10.330   3.375  0.00  0.00    +0.000 A 
ATOM     17  C   UNL     1       4.178  10.694   4.141  0.00  0.00    +0.000 A 
ATOM     18  C   UNL     1       3.109   9.828   4.278  0.00  0.00    +0.000 A 
ATOM     19  C   UNL     1       3.132   8.597   3.648  0.00  0.00    +0.004 A 
ENDBRANCH   9  14
BRANCH   4  20
ATOM     20  C   UNL     1       3.735   2.692  -0.019  0.00  0.00    -0.035 A 
ATOM     21  C   UNL     1       3.096   2.409  -1.213  0.00  0.00    +0.008 A 
ATOM     22  C   UNL     1       1.842   1.830  -1.207  0.00  0.00    +0.046 A 
ATOM     23  C   UNL     1       1.223   1.532  -0.001  0.00  0.00    +0.117 A 
ATOM     24  C   UNL     1       1.863   1.822   1.195  0.00  0.00    +0.046 A 
ATOM     25  C   UNL     1       3.119   2.397   1.183  0.00  0.00    +0.008 A 
BRANCH  23  26
ATOM     26  O   UNL     1      -0.011   0.963   0.007  0.00  0.00    -0.507 OA
ATOM     27  H   UNL     1      -0.501   0.727   0.963  0.00  0.00    +0.292 HD
ENDBRANCH  23  26
ENDBRANCH   4  20
BRANCH   3  28
ATOM     28  C   UNL     1       6.560   1.272  -0.081  0.00  0.00    +0.338 C 
ATOM     29  O   UNL     1       7.352   0.512   0.444  0.00  0.00    -0.245 OA
BRANCH  28  30
ATOM     30  O   UNL     1       6.141   1.044  -1.343  0.00  0.00    -0.458 OA
BRANCH  30  31
ATOM     31  C   UNL     1       6.669  -0.108  -2.004  0.00  0.00    +0.177 C 
ATOM     32  C   UNL     1       7.924   0.276  -2.814  0.00  0.00    +0.044 C 
ATOM     33  C   UNL     1       7.829  -0.591  -4.095  0.00  0.00    +0.004 C 
ATOM     34  C   UNL     1       6.311  -0.580  -4.402  0.00  0.00    +0.004 C 
ATOM     35  C   UNL     1       5.643  -0.652  -3.014  0.00  0.00    +0.044 C 
ENDBRANCH  30  31
ENDBRANCH  28  30
ENDBRANCH   3  28
TORSDOF 6
