REMARK  Name = ZINC08734863
REMARK  8 active torsions:
REMARK  status: ('A' for Active; 'I' for Inactive)
REMARK    1  A    between atoms: C_4  and  N_7
REMARK    2  A    between atoms: C_12  and  C_14
REMARK    3  A    between atoms: C_14  and  O_15
REMARK    4  A    between atoms: O_15  and  C_16
REMARK    5  A    between atoms: C_16  and  C_18
REMARK    6  A    between atoms: C_23  and  S_24
REMARK    7  A    between atoms: S_24  and  C_25
REMARK    8  A    between atoms: C_25  and  C_26
REMARK                            x       y       z     vdW  Elec       q    Type
REMARK                         _______ _______ _______ _____ _____    ______ ____
ROOT
ATOM      1  N   UNL     1       3.599  -0.629  -0.036  0.00  0.00    -0.326 N 
ATOM      2  C   UNL     1       3.624  -1.949   0.056  0.00  0.00    +0.210 A 
ATOM      3  N   UNL     1       2.481  -2.652   0.059  0.00  0.00    -0.181 NA
ATOM      4  C   UNL     1       2.517  -3.971   0.152  0.00  0.00    +0.217 A 
ATOM      5  N   UNL     1       3.686  -4.622   0.244  0.00  0.00    -0.198 NA
ATOM      6  C   UNL     1       4.821  -3.970   0.244  0.00  0.00    +0.151 A 
ATOM      7  N   UNL     1       4.825  -2.621   0.145  0.00  0.00    -0.311 N 
ATOM      8  N   UNL     1       1.342  -4.683   0.154  0.00  0.00    -0.327 N 
ATOM      9  H   UNL     1       0.493  -4.219   0.088  0.00  0.00    +0.145 HD
ATOM     10  H   UNL     1       1.362  -5.651   0.222  0.00  0.00    +0.145 HD
ATOM     11  H   UNL     1       5.663  -2.132   0.141  0.00  0.00    +0.170 HD
ATOM     12  H   UNL     1       4.427  -0.134  -0.134  0.00  0.00    +0.169 HD
ENDROOT
BRANCH   1  16
ATOM     13  C   UNL     1      -0.011   1.386   0.091  0.00  0.00    +0.000 A 
ATOM     14  C   UNL     1       0.163   0.237   0.843  0.00  0.00    +0.002 A 
ATOM     15  C   UNL     1       1.364  -0.440   0.805  0.00  0.00    +0.026 A 
ATOM     16  C   UNL     1       2.406   0.036   0.006  0.00  0.00    +0.042 A 
ATOM     17  C   UNL     1       2.223   1.197  -0.750  0.00  0.00    +0.026 A 
ATOM     18  C   UNL     1       1.016   1.864  -0.703  0.00  0.00    +0.002 A 
ENDBRANCH   1  16
BRANCH   6  19
ATOM     19  C   UNL     1       6.122  -4.722   0.349  0.00  0.00    +0.306 C 
BRANCH  19  20
ATOM     20  O   UNL     1       5.857  -6.124   0.436  0.00  0.00    -0.453 OA
BRANCH  20  21
ATOM     21  C   UNL     1       6.922  -6.943   0.535  0.00  0.00    +0.341 C 
ATOM     22  O   UNL     1       8.046  -6.481   0.548  0.00  0.00    -0.245 OA
BRANCH  21  23
ATOM     23  C   UNL     1       6.724  -8.399   0.629  0.00  0.00    +0.072 A 
ATOM     24  C   UNL     1       5.434  -8.937   0.609  0.00  0.00    +0.016 A 
ATOM     25  C   UNL     1       5.256 -10.300   0.696  0.00  0.00    +0.001 A 
ATOM     26  C   UNL     1       6.351 -11.145   0.805  0.00  0.00    +0.001 A 
ATOM     27  C   UNL     1       7.630 -10.631   0.827  0.00  0.00    +0.015 A 
ATOM     28  C   UNL     1       7.832  -9.258   0.733  0.00  0.00    +0.023 A 
BRANCH  28  29
ATOM     29  S   UNL     1       9.465  -8.598   0.753  0.00  0.00    -0.109 S 
BRANCH  29  30
ATOM     30  C   UNL     1      10.528 -10.062   0.898  0.00  0.00    +0.192 C 
BRANCH  30  31
ATOM     31  C   UNL     1      11.938  -9.643   0.926  0.00  0.00    +0.074 C 
ATOM     32  N   UNL     1      13.027  -9.320   0.948  0.00  0.00    -0.196 NA
ENDBRANCH  30  31
ENDBRANCH  29  30
ENDBRANCH  28  29
ENDBRANCH  21  23
ENDBRANCH  20  21
ENDBRANCH  19  20
ENDBRANCH   6  19
TORSDOF 8
