REMARK  Name = ZINC59507690
REMARK  8 active torsions:
REMARK  status: ('A' for Active; 'I' for Inactive)
REMARK    1  A    between atoms: C_6  and  N_7
REMARK    2  A    between atoms: N_7  and  C_8
REMARK    3  A    between atoms: C_8  and  C_9
REMARK    4  A    between atoms: C_9  and  C_10
REMARK    5  A    between atoms: C_10  and  C_11
REMARK    6  A    between atoms: N_13  and  N_14
REMARK    7  A    between atoms: C_15  and  C_16
REMARK    8  A    between atoms: C_21  and  O_22
REMARK                            x       y       z     vdW  Elec       q    Type
REMARK                         _______ _______ _______ _____ _____    ______ ____
ROOT
ATOM      1  C   UNL     1      -4.002  -4.769   0.016  0.00  0.00    +0.232 C 
ATOM      2  O   UNL     1      -4.935  -3.995   0.030  0.00  0.00    -0.274 OA
ATOM      3  N   UNL     1      -4.229  -6.098   0.011  0.00  0.00    -0.207 N 
ATOM      4  H   UNL     1      -3.482  -6.717   0.001  0.00  0.00    +0.177 HD
ENDROOT
BRANCH   3   5
ATOM      5  N   UNL     1      -5.543  -6.584   0.022  0.00  0.00    -0.188 NA
ATOM      6  C   UNL     1      -5.761  -7.864   0.017  0.00  0.00    +0.142 C 
BRANCH   6   7
ATOM      7  C   UNL     1      -7.143  -8.375   0.028  0.00  0.00    +0.037 A 
ATOM      8  C   UNL     1      -7.383  -9.751   0.029  0.00  0.00    +0.033 A 
ATOM      9  C   UNL     1      -8.679 -10.224   0.040  0.00  0.00    +0.042 A 
ATOM     10  C   UNL     1      -9.745  -9.338   0.049  0.00  0.00    +0.023 A 
ATOM     11  C   UNL     1      -9.520  -7.974   0.048  0.00  0.00    +0.047 A 
ATOM     12  C   UNL     1      -8.224  -7.484   0.044  0.00  0.00    +0.126 A 
ATOM     13 CL   UNL     1      -8.976 -11.934   0.041  0.00  0.00    -0.084 Cl
BRANCH  12  14
ATOM     14  O   UNL     1      -8.003  -6.144   0.048  0.00  0.00    -0.506 OA
ATOM     15  H   UNL     1      -7.948  -5.751  -0.834  0.00  0.00    +0.292 HD
ENDBRANCH  12  14
ENDBRANCH   6   7
ENDBRANCH   3   5
BRANCH   1  16
ATOM     16  C   UNL     1      -2.589  -4.246   0.005  0.00  0.00    +0.099 C 
BRANCH  16  17
ATOM     17  C   UNL     1      -2.611  -2.716   0.013  0.00  0.00    +0.028 C 
BRANCH  17  18
ATOM     18  C   UNL     1      -1.176  -2.185   0.002  0.00  0.00    +0.102 C 
BRANCH  18  19
ATOM     19  N   UNL     1      -1.198  -0.721   0.010  0.00  0.00    -0.344 N 
ATOM     20  H   UNL     1      -2.045  -0.248   0.021  0.00  0.00    +0.146 HD
BRANCH  19  26
ATOM     21  C   UNL     1      -0.017   1.385   0.010  0.00  0.00    +0.024 A 
ATOM     22  C   UNL     1       1.171   2.090   0.002  0.00  0.00    +0.022 A 
ATOM     23  C   UNL     1       2.378   1.415  -0.013  0.00  0.00    +0.041 A 
ATOM     24  C   UNL     1       2.400   0.031  -0.022  0.00  0.00    +0.022 A 
ATOM     25  C   UNL     1       1.216  -0.679  -0.014  0.00  0.00    +0.024 A 
ATOM     26  C   UNL     1       0.002  -0.004   0.002  0.00  0.00    +0.027 A 
ATOM     27 CL   UNL     1       3.869   2.305  -0.024  0.00  0.00    -0.084 Cl
ENDBRANCH  19  26
ENDBRANCH  18  19
ENDBRANCH  17  18
ENDBRANCH  16  17
ENDBRANCH   1  16
TORSDOF 8
