REMARK  Name = ZINC63375352
REMARK  7 active torsions:
REMARK  status: ('A' for Active; 'I' for Inactive)
REMARK    1  A    between atoms: C_1  and  C_2
REMARK    2  A    between atoms: C_2  and  C_3
REMARK    3  A    between atoms: C_3  and  C_4
REMARK    4  A    between atoms: C_4  and  N_5
REMARK    5  A    between atoms: C_6  and  C_8
REMARK    6  A    between atoms: C_13  and  N_14
REMARK    7  A    between atoms: C_30  and  C_35
REMARK                            x       y       z     vdW  Elec       q    Type
REMARK                         _______ _______ _______ _____ _____    ______ ____
ROOT
ATOM      1  N   UNL     1       1.239  -6.628  -3.112  0.00  0.00    -0.192 N 
ATOM      2  C   UNL     1       0.017  -7.164  -2.912  0.00  0.00    +0.248 C 
ATOM      3  O   UNL     1      -1.000  -6.916  -3.522  0.00  0.00    -0.273 OA
ATOM      4  C   UNL     1       0.181  -8.139  -1.767  0.00  0.00    +0.169 C 
ATOM      5  C   UNL     1      -0.753  -7.750  -0.607  0.00  0.00    +0.065 C 
ATOM      6  C   UNL     1      -0.144  -8.338   0.644  0.00  0.00    -0.034 C 
ATOM      7  C   UNL     1      -0.666  -9.139   1.567  0.00  0.00    -0.001 A 
ATOM      8  C   UNL     1      -2.032  -9.655   1.755  0.00  0.00    +0.010 A 
ATOM      9  C   UNL     1      -2.218 -10.485   2.816  0.00  0.00    +0.001 A 
ATOM     10  C   UNL     1      -1.195 -10.847   3.698  0.00  0.00    +0.002 A 
ATOM     11  C   UNL     1       0.087 -10.412   3.606  0.00  0.00    +0.026 A 
ATOM     12  C   UNL     1       0.405  -9.528   2.534  0.00  0.00    +0.043 A 
ATOM     13  N   UNL     1       1.528  -8.953   2.223  0.00  0.00    -0.375 N 
ATOM     14  C   UNL     1       1.300  -8.090   1.062  0.00  0.00    +0.131 C 
ATOM     15  C   UNL     1       2.185  -8.496  -0.125  0.00  0.00    +0.135 C 
ATOM     16  N   UNL     1       1.581  -7.932  -1.344  0.00  0.00    -0.264 N 
ATOM     17  C   UNL     1       2.135  -7.098  -2.234  0.00  0.00    +0.317 C 
ATOM     18  O   UNL     1       3.314  -6.801  -2.242  0.00  0.00    -0.252 OA
ATOM     19  H   UNL     1       2.374  -9.075   2.682  0.00  0.00    +0.160 HD
ENDROOT
BRANCH  15  20
ATOM     20  C   UNL     1       2.232  -9.998  -0.242  0.00  0.00    -0.025 A 
ATOM     21  C   UNL     1       1.093 -10.700  -0.589  0.00  0.00    +0.008 A 
ATOM     22  C   UNL     1       1.136 -12.077  -0.696  0.00  0.00    +0.038 A 
ATOM     23  C   UNL     1       2.321 -12.753  -0.457  0.00  0.00    +0.123 A 
ATOM     24  C   UNL     1       3.461 -12.049  -0.110  0.00  0.00    +0.038 A 
ATOM     25  C   UNL     1       3.417 -10.671  -0.008  0.00  0.00    +0.008 A 
ATOM     26  F   UNL     1       2.363 -14.100  -0.562  0.00  0.00    -0.205 F 
ENDBRANCH  15  20
BRANCH   1  32
ATOM     27  C   UNL     1       1.415  -4.328  -3.862  0.00  0.00    +0.059 A 
ATOM     28  C   UNL     1       1.719  -3.412  -4.871  0.00  0.00    +0.015 A 
ATOM     29  C   UNL     1       2.127  -3.862  -6.108  0.00  0.00    +0.001 A 
ATOM     30  C   UNL     1       2.238  -5.220  -6.356  0.00  0.00    +0.002 A 
ATOM     31  C   UNL     1       1.941  -6.137  -5.368  0.00  0.00    +0.025 A 
ATOM     32  C   UNL     1       1.534  -5.702  -4.115  0.00  0.00    +0.058 A 
BRANCH  27  34
ATOM     33  N   UNL     1       0.865  -2.531  -2.296  0.00  0.00    -0.311 N 
ATOM     34  C   UNL     1       0.978  -3.853  -2.535  0.00  0.00    +0.246 C 
ATOM     35  O   UNL     1       0.720  -4.654  -1.657  0.00  0.00    -0.270 OA
ATOM     36  H   UNL     1       1.071  -1.892  -2.996  0.00  0.00    +0.149 HD
BRANCH  33  37
ATOM     37  C   UNL     1       0.431  -2.059  -0.979  0.00  0.00    +0.104 C 
BRANCH  37  38
ATOM     38  C   UNL     1       0.387  -0.530  -0.974  0.00  0.00    +0.018 C 
BRANCH  38  40
ATOM     39  C   UNL     1      -0.110   1.492   0.407  0.00  0.00    +0.004 C 
ATOM     40  C   UNL     1      -0.066  -0.037   0.402  0.00  0.00    -0.002 C 
ENDBRANCH  38  40
ENDBRANCH  37  38
ENDBRANCH  33  37
ENDBRANCH  27  34
ENDBRANCH   1  32
TORSDOF 6
