REMARK  Name = ZINC67612397
REMARK  8 active torsions:
REMARK  status: ('A' for Active; 'I' for Inactive)
REMARK    1  A    between atoms: C_1  and  C_2
REMARK    2  A    between atoms: C_2  and  C_4
REMARK    3  A    between atoms: C_2  and  N_13
REMARK    4  A    between atoms: C_4  and  C_5
REMARK    5  A    between atoms: C_5  and  C_6
REMARK    6  A    between atoms: C_9  and  O_12
REMARK    7  A    between atoms: C_19  and  N_22
REMARK    8  A    between atoms: N_22  and  C_23
REMARK                            x       y       z     vdW  Elec       q    Type
REMARK                         _______ _______ _______ _____ _____    ______ ____
ROOT
ATOM      1  N   UNL     1       0.688  -0.476  -1.203  0.00  0.00    -0.297 N 
ATOM      2  C   UNL     1       0.006  -0.608  -2.358  0.00  0.00    +0.302 C 
ATOM      3  O   UNL     1      -1.178  -0.335  -2.400  0.00  0.00    -0.253 OA
ATOM      4  N   UNL     1       0.637  -1.043  -3.467  0.00  0.00    -0.284 N 
ATOM      5  C   UNL     1       2.057  -1.413  -3.556  0.00  0.00    +0.111 C 
ATOM      6  C   UNL     1       2.321  -1.874  -5.005  0.00  0.00    +0.043 C 
ATOM      7  C   UNL     1       0.908  -2.274  -5.505  0.00  0.00    +0.089 C 
ATOM      8  C   UNL     1       0.016  -1.232  -4.791  0.00  0.00    +0.131 C 
ATOM      9  H   UNL     1       1.632  -0.695  -1.170  0.00  0.00    +0.151 HD
ENDROOT
BRANCH   1  11
ATOM     10  C   UNL     1      -0.019   1.526   0.010  0.00  0.00    +0.028 C 
ATOM     11  C   UNL     1       0.002  -0.004   0.002  0.00  0.00    +0.072 C 
BRANCH  11  12
ATOM     12  C   UNL     1       0.742  -0.511   1.242  0.00  0.00    +0.026 C 
BRANCH  12  13
ATOM     13  C   UNL     1       0.655  -2.037   1.299  0.00  0.00    +0.037 C 
BRANCH  13  14
ATOM     14  C   UNL     1       1.384  -2.537   2.519  0.00  0.00    -0.047 A 
ATOM     15  C   UNL     1       2.731  -2.841   2.443  0.00  0.00    +0.007 A 
ATOM     16  C   UNL     1       3.401  -3.299   3.561  0.00  0.00    +0.045 A 
ATOM     17  C   UNL     1       2.722  -3.453   4.761  0.00  0.00    +0.117 A 
ATOM     18  C   UNL     1       1.371  -3.147   4.835  0.00  0.00    +0.045 A 
ATOM     19  C   UNL     1       0.707  -2.684   3.716  0.00  0.00    +0.007 A 
BRANCH  17  20
ATOM     20  O   UNL     1       3.379  -3.905   5.861  0.00  0.00    -0.507 OA
ATOM     21  H   UNL     1       3.771  -3.204   6.401  0.00  0.00    +0.292 HD
ENDBRANCH  17  20
ENDBRANCH  13  14
ENDBRANCH  12  13
ENDBRANCH  11  12
ENDBRANCH   1  11
BRANCH   7  22
ATOM     22  N   UNL     1       0.810  -2.145  -6.961  0.00  0.00    -0.339 N 
ATOM     23  H   UNL     1       1.392  -1.530  -7.434  0.00  0.00    +0.146 HD
BRANCH  22  24
ATOM     24  C   UNL     1      -0.122  -2.908  -7.669  0.00  0.00    +0.027 A 
ATOM     25  C   UNL     1      -0.960  -3.785  -6.993  0.00  0.00    +0.023 A 
ATOM     26  C   UNL     1      -1.881  -4.537  -7.696  0.00  0.00    +0.002 A 
ATOM     27  C   UNL     1      -1.968  -4.418  -9.071  0.00  0.00    +0.000 A 
ATOM     28  C   UNL     1      -1.135  -3.546  -9.747  0.00  0.00    +0.002 A 
ATOM     29  C   UNL     1      -0.216  -2.786  -9.049  0.00  0.00    +0.023 A 
ENDBRANCH  22  24
ENDBRANCH   7  22
TORSDOF 7
