REMARK  Name = ZINC62320062
REMARK  7 active torsions:
REMARK  status: ('A' for Active; 'I' for Inactive)
REMARK    1  A    between atoms: C_1  and  C_2
REMARK    2  A    between atoms: C_2  and  C_3
REMARK    3  A    between atoms: C_2  and  C_4
REMARK    4  A    between atoms: C_2  and  N_5
REMARK    5  A    between atoms: C_6  and  C_8
REMARK    6  A    between atoms: N_10  and  C_20
REMARK    7  A    between atoms: C_15  and  N_19
REMARK                            x       y       z     vdW  Elec       q    Type
REMARK                         _______ _______ _______ _____ _____    ______ ____
ROOT
ATOM      1  C   UNL     1       2.686  -0.746  -2.778  0.00  0.00    +0.100 A 
ATOM      2  C   UNL     1       4.029  -0.488  -2.954  0.00  0.00    +0.103 A 
ATOM      3  N   UNL     1       4.727  -1.001  -3.977  0.00  0.00    -0.343 N 
ATOM      4  C   UNL     1       4.161  -1.822  -4.928  0.00  0.00    +0.055 A 
ATOM      5  C   UNL     1       4.929  -2.329  -5.971  0.00  0.00    +0.026 A 
ATOM      6  C   UNL     1       4.356  -3.151  -6.920  0.00  0.00    +0.004 A 
ATOM      7  C   UNL     1       3.014  -3.483  -6.853  0.00  0.00    +0.023 A 
ATOM      8  C   UNL     1       2.224  -2.992  -5.824  0.00  0.00    +0.037 A 
ATOM      9  C   UNL     1       2.797  -2.156  -4.855  0.00  0.00    +0.067 A 
ATOM     10  C   UNL     1       1.997  -1.618  -3.744  0.00  0.00    +0.203 A 
ATOM     11  O   UNL     1       0.812  -1.881  -3.629  0.00  0.00    -0.286 OA
ENDROOT
BRANCH   3  12
ATOM     12  C   UNL     1       6.151  -0.675  -4.088  0.00  0.00    +0.087 C 
ATOM     13  C   UNL     1       6.914  -1.215  -2.861  0.00  0.00    +0.025 C 
ATOM     14  C   UNL     1       7.980  -0.130  -2.569  0.00  0.00    +0.002 C 
ATOM     15  C   UNL     1       7.218   1.186  -2.862  0.00  0.00    +0.002 C 
ATOM     16  C   UNL     1       6.343   0.852  -4.089  0.00  0.00    +0.025 C 
ENDBRANCH   3  12
BRANCH   1  18
ATOM     17  N   UNL     1       0.674  -0.515  -1.414  0.00  0.00    -0.306 N 
ATOM     18  C   UNL     1       1.955  -0.163  -1.643  0.00  0.00    +0.250 C 
ATOM     19  O   UNL     1       2.506   0.636  -0.910  0.00  0.00    -0.270 OA
ATOM     20  H   UNL     1       0.212  -1.097  -2.038  0.00  0.00    +0.150 HD
BRANCH  17  22
ATOM     21  C   UNL     1      -0.057   1.510  -0.254  0.00  0.00    +0.031 C 
ATOM     22  C   UNL     1      -0.020  -0.019  -0.223  0.00  0.00    +0.026 C 
ATOM     23  C   UNL     1       0.721  -0.486   1.031  0.00  0.00    +0.031 C 
ATOM     24  C   UNL     1      -1.450  -0.563  -0.203  0.00  0.00    +0.031 C 
ENDBRANCH  17  22
ENDBRANCH   1  18
BRANCH   8  25
ATOM     25  N   UNL     1       0.876  -3.324  -5.755  0.00  0.00    -0.357 N 
ATOM     26  H   UNL     1       0.465  -3.832  -6.471  0.00  0.00    +0.142 HD
ATOM     27  H   UNL     1       0.347  -3.046  -4.991  0.00  0.00    +0.142 HD
ENDBRANCH   8  25
TORSDOF 4
