REMARK  Name = ZINC39760305
REMARK  3 active torsions:
REMARK  status: ('A' for Active; 'I' for Inactive)
REMARK    1  A    between atoms: C_8  and  C_13
REMARK    2  A    between atoms: N_15  and  C_16
REMARK    3  A    between atoms: C_19  and  N_26
REMARK                            x       y       z     vdW  Elec       q    Type
REMARK                         _______ _______ _______ _____ _____    ______ ____
ROOT
ATOM      1  C   UNL     1       2.699  -4.033  -0.932  0.00  0.00    +0.233 C 
ATOM      2  O   UNL     1       1.689  -4.454  -1.456  0.00  0.00    -0.274 OA
ATOM      3  N   UNL     1       3.906  -4.356  -1.438  0.00  0.00    -0.284 N 
ATOM      4  H   UNL     1       4.710  -3.967  -1.060  0.00  0.00    +0.155 HD
ENDROOT
BRANCH   1  12
ATOM      5  C   UNL     1      -1.423  -0.551   1.247  0.00  0.00    +0.001 A 
ATOM      6  C   UNL     1      -0.702   0.594   0.906  0.00  0.00    +0.002 A 
ATOM      7  C   UNL     1       0.598   0.551   0.512  0.00  0.00    +0.024 A 
ATOM      8  C   UNL     1       1.280  -0.677   0.432  0.00  0.00    +0.040 A 
ATOM      9  N   UNL     1       2.555  -0.707   0.044  0.00  0.00    -0.284 N 
ATOM     10  C   UNL     1       3.254  -1.825  -0.053  0.00  0.00    +0.233 C 
ATOM     11  O   UNL     1       4.416  -1.789  -0.412  0.00  0.00    -0.274 OA
ATOM     12  C   UNL     1       2.604  -3.148   0.284  0.00  0.00    +0.184 C 
ATOM     13  C   UNL     1       1.154  -3.119   0.725  0.00  0.00    +0.004 C 
ATOM     14  C   UNL     1       0.543  -1.902   0.786  0.00  0.00    -0.007 A 
ATOM     15  C   UNL     1      -0.855  -1.784   1.202  0.00  0.00    +0.009 A 
ATOM     16  H   UNL     1       2.991   0.132  -0.176  0.00  0.00    +0.155 HD
ENDBRANCH   1  12
BRANCH   3  17
ATOM     17  C   UNL     1       3.998  -5.252  -2.508  0.00  0.00    +0.043 A 
ATOM     18  C   UNL     1       3.026  -5.268  -3.485  0.00  0.00    +0.026 A 
ATOM     19  C   UNL     1       3.103  -6.152  -4.556  0.00  0.00    +0.025 A 
ATOM     20  C   UNL     1       4.156  -7.037  -4.669  0.00  0.00    +0.038 A 
ATOM     21  C   UNL     1       5.164  -7.044  -3.687  0.00  0.00    +0.008 A 
ATOM     22  C   UNL     1       5.089  -6.138  -2.598  0.00  0.00    +0.023 A 
ATOM     23  C   UNL     1       6.109  -6.161  -1.635  0.00  0.00    +0.121 A 
ATOM     24  N   UNL     1       7.107  -7.005  -1.758  0.00  0.00    -0.263 NA
ATOM     25  C   UNL     1       7.205  -7.858  -2.769  0.00  0.00    +0.111 A 
ATOM     26  C   UNL     1       6.261  -7.922  -3.749  0.00  0.00    +0.030 A 
BRANCH  20  27
ATOM     27  N   UNL     1       4.220  -7.919  -5.749  0.00  0.00    -0.329 N 
ATOM     28  C   UNL     1       3.599  -9.249  -5.668  0.00  0.00    +0.105 C 
ATOM     29  C   UNL     1       2.655  -9.425  -6.861  0.00  0.00    +0.019 C 
ATOM     30  C   UNL     1       3.425  -9.170  -8.159  0.00  0.00    +0.003 C 
ATOM     31  C   UNL     1       3.950  -7.732  -8.167  0.00  0.00    +0.019 C 
ATOM     32  C   UNL     1       4.904  -7.534  -6.991  0.00  0.00    +0.105 C 
ENDBRANCH  20  27
ENDBRANCH   3  17
TORSDOF 3
