REMARK  Name = ZINC09608825
REMARK  9 active torsions:
REMARK  status: ('A' for Active; 'I' for Inactive)
REMARK    1  A    between atoms: C_1  and  C_2
REMARK    2  A    between atoms: C_7  and  C_8
REMARK    3  A    between atoms: C_8  and  S_9
REMARK    4  A    between atoms: S_9  and  C_10
REMARK    5  A    between atoms: C_17  and  C_29
REMARK    6  A    between atoms: C_23  and  C_27
REMARK    7  A    between atoms: C_23  and  C_28
REMARK    8  A    between atoms: C_32  and  O_35
REMARK    9  A    between atoms: O_35  and  C_36
REMARK                            x       y       z     vdW  Elec       q    Type
REMARK                         _______ _______ _______ _____ _____    ______ ____
ROOT
ATOM      1  C   UNL     1      -1.513   1.192   4.568  0.00  0.00    +0.194 A 
ATOM      2  N   UNL     1      -2.603   1.546   5.235  0.00  0.00    -0.206 NA
ATOM      3  C   UNL     1      -2.506   2.205   6.385  0.00  0.00    +0.135 A 
ATOM      4  C   UNL     1      -1.250   2.523   6.884  0.00  0.00    +0.071 A 
ATOM      5  C   UNL     1      -0.129   2.135   6.159  0.00  0.00    +0.280 A 
ATOM      6  O   UNL     1       1.116   2.422   6.610  0.00  0.00    -0.265 OA
ATOM      7  N   UNL     1      -0.299   1.472   5.018  0.00  0.00    -0.183 NA
ATOM      8  C   UNL     1      -1.105   3.273   8.173  0.00  0.00    +0.092 C 
ATOM      9  C   UNL     1      -2.375   3.224   8.983  0.00  0.00    +0.024 C 
ATOM     10  C   UNL     1      -3.556   2.894   8.419  0.00  0.00    +0.017 C 
ATOM     11  N   UNL     1      -3.638   2.575   7.091  0.00  0.00    -0.302 N 
ATOM     12  C   UNL     1      -4.827   2.870   9.233  0.00  0.00    +0.058 C 
ATOM     13  C   UNL     1      -4.504   2.484  10.678  0.00  0.00    -0.023 C 
ATOM     14  C   UNL     1      -3.504   3.500  11.239  0.00  0.00    +0.086 C 
ATOM     15  C   UNL     1      -2.290   3.532  10.353  0.00  0.00    +0.162 C 
ATOM     16  O   UNL     1      -1.213   3.832  10.829  0.00  0.00    -0.292 OA
ATOM     17  C   UNL     1      -5.785   2.507  11.515  0.00  0.00    +0.011 C 
ATOM     18  C   UNL     1      -3.888   1.084  10.711  0.00  0.00    +0.011 C 
ATOM     19  H   UNL     1      -4.496   2.609   6.640  0.00  0.00    +0.153 HD
ENDROOT
BRANCH   8  20
ATOM     20  C   UNL     1      -0.769   4.711   7.872  0.00  0.00    -0.035 A 
ATOM     21  C   UNL     1      -1.644   5.483   7.131  0.00  0.00    +0.008 A 
ATOM     22  C   UNL     1      -1.338   6.801   6.853  0.00  0.00    +0.046 A 
ATOM     23  C   UNL     1      -0.152   7.350   7.319  0.00  0.00    +0.120 A 
ATOM     24  C   UNL     1       0.724   6.573   8.063  0.00  0.00    +0.046 A 
ATOM     25  C   UNL     1       0.411   5.257   8.342  0.00  0.00    +0.008 A 
BRANCH  23  26
ATOM     26  O   UNL     1       0.151   8.647   7.046  0.00  0.00    -0.495 OA
ATOM     27  C   UNL     1       1.389   9.145   7.558  0.00  0.00    +0.277 C 
ENDBRANCH  23  26
ENDBRANCH   8  20
BRANCH   1  28
ATOM     28  S   UNL     1      -1.684   0.321   3.046  0.00  0.00    -0.081 S 
BRANCH  28  29
ATOM     29  C   UNL     1       0.025   0.045   2.504  0.00  0.00    +0.112 C 
BRANCH  29  36
ATOM     30  C   UNL     1      -0.018   1.503   0.010  0.00  0.00    +0.044 C 
ATOM     31  C   UNL     1       0.002  -0.004   0.002  0.00  0.00    -0.046 A 
ATOM     32  C   UNL     1       0.006  -0.689  -1.199  0.00  0.00    +0.003 A 
ATOM     33  C   UNL     1       0.025  -2.071  -1.207  0.00  0.00    +0.000 A 
ATOM     34  C   UNL     1       0.040  -2.768  -0.013  0.00  0.00    +0.000 A 
ATOM     35  C   UNL     1       0.037  -2.084   1.188  0.00  0.00    +0.005 A 
ATOM     36  C   UNL     1       0.023  -0.702   1.195  0.00  0.00    -0.034 A 
ENDBRANCH  29  36
ENDBRANCH  28  29
ENDBRANCH   1  28
TORSDOF 5
