REMARK  Name = ZINC39577964
REMARK  7 active torsions:
REMARK  status: ('A' for Active; 'I' for Inactive)
REMARK    1  A    between atoms: C_1  and  O_2
REMARK    2  A    between atoms: O_2  and  C_3
REMARK    3  A    between atoms: C_6  and  C_10
REMARK    4  A    between atoms: C_8  and  O_9
REMARK    5  A    between atoms: N_11  and  N_12
REMARK    6  A    between atoms: C_13  and  C_15
REMARK    7  A    between atoms: C_18  and  C_21
REMARK                            x       y       z     vdW  Elec       q    Type
REMARK                         _______ _______ _______ _____ _____    ______ ____
ROOT
ATOM      1  N   UNL     1      -7.299  -2.568   0.052  0.00  0.00    -0.205 N 
ATOM      2  C   UNL     1      -8.437  -1.847   0.062  0.00  0.00    +0.262 C 
ATOM      3  O   UNL     1      -8.387  -0.634   0.063  0.00  0.00    -0.271 OA
ATOM      4  H   UNL     1      -7.339  -3.537   0.051  0.00  0.00    +0.177 HD
ENDROOT
BRANCH   2   5
ATOM      5  C   UNL     1      -9.773  -2.546   0.070  0.00  0.00    +0.240 C 
ATOM      6  C   UNL     1     -10.172  -2.958  -1.335  0.00  0.00    +0.036 C 
ATOM      7  C   UNL     1     -11.303  -2.287  -1.558  0.00  0.00    +0.068 C 
ATOM      8  N   UNL     1     -11.634  -1.533  -0.486  0.00  0.00    -0.158 NA
ATOM      9  N   UNL     1     -10.845  -1.615   0.464  0.00  0.00    -0.170 NA
BRANCH   7  10
ATOM     10  C   UNL     1     -12.104  -2.358  -2.833  0.00  0.00    +0.015 C 
ATOM     11  C   UNL     1     -12.195  -0.964  -3.457  0.00  0.00    +0.016 C 
ATOM     12  C   UNL     1     -13.008  -1.037  -4.751  0.00  0.00    -0.010 C 
ATOM     13  C   UNL     1     -14.416  -1.550  -4.441  0.00  0.00    +0.007 C 
ATOM     14  C   UNL     1     -14.325  -2.944  -3.817  0.00  0.00    -0.010 C 
ATOM     15  C   UNL     1     -13.512  -2.871  -2.522  0.00  0.00    +0.016 C 
ATOM     16  C   UNL     1     -13.639  -3.898  -4.797  0.00  0.00    +0.007 C 
ATOM     17  C   UNL     1     -12.231  -3.385  -5.107  0.00  0.00    -0.010 C 
ATOM     18  C   UNL     1     -12.322  -1.991  -5.731  0.00  0.00    +0.007 C 
ATOM     19  C   UNL     1     -11.418  -3.312  -3.813  0.00  0.00    +0.016 C 
ENDBRANCH   7  10
ENDBRANCH   2   5
BRANCH   1  21
ATOM     20  C   UNL     1      -4.962  -2.613   0.035  0.00  0.00    +0.138 C 
ATOM     21  N   UNL     1      -6.058  -1.919   0.044  0.00  0.00    -0.188 NA
BRANCH  20  25
ATOM     22  C   UNL     1      -1.201  -0.638   0.010  0.00  0.00    +0.161 A 
ATOM     23  C   UNL     1      -2.373   0.104   0.019  0.00  0.00    +0.050 A 
ATOM     24  C   UNL     1      -3.596  -0.534   0.027  0.00  0.00    +0.013 A 
ATOM     25  C   UNL     1      -3.656  -1.930   0.026  0.00  0.00    -0.002 A 
ATOM     26  C   UNL     1      -2.474  -2.676   0.016  0.00  0.00    +0.058 A 
ATOM     27  C   UNL     1      -1.253  -2.030   0.003  0.00  0.00    +0.159 A 
BRANCH  22  29
ATOM     28  C   UNL     1      -0.017   1.425   0.010  0.00  0.00    +0.277 C 
ATOM     29  O   UNL     1       0.002  -0.004   0.002  0.00  0.00    -0.491 OA
ENDBRANCH  22  29
BRANCH  27  30
ATOM     30  O   UNL     1      -0.101  -2.753  -0.011  0.00  0.00    -0.503 OA
ATOM     31  H   UNL     1       0.240  -2.967   0.868  0.00  0.00    +0.292 HD
ENDBRANCH  27  30
ENDBRANCH  20  25
ENDBRANCH   1  21
TORSDOF 6
