REMARK  Name = ZINC36804175
REMARK  4 active torsions:
REMARK  status: ('A' for Active; 'I' for Inactive)
REMARK    1  A    between atoms: C_1  and  C_2
REMARK    2  A    between atoms: C_8  and  N_10
REMARK    3  A    between atoms: N_10  and  C_11
REMARK    4  A    between atoms: C_11  and  C_12
REMARK                            x       y       z     vdW  Elec       q    Type
REMARK                         _______ _______ _______ _____ _____    ______ ____
ROOT
ATOM      1  C   UNL     1       2.794  -0.389   2.478  0.00  0.00    -0.046 C 
ENDROOT
BRANCH   1   2
ATOM      2  C   UNL     1       4.208   0.133   2.467  0.00  0.00    -0.060 A 
ATOM      3  C   UNL     1       5.225  -0.642   1.942  0.00  0.00    +0.051 A 
ATOM      4  C   UNL     1       6.526  -0.165   1.931  0.00  0.00    +0.168 A 
ATOM      5  C   UNL     1       6.806   1.096   2.450  0.00  0.00    +0.180 A 
ATOM      6  C   UNL     1       5.781   1.868   2.975  0.00  0.00    +0.063 A 
ATOM      7  C   UNL     1       4.484   1.387   2.978  0.00  0.00    +0.021 A 
ATOM      8 BR   UNL     1       6.156   3.582   3.682  0.00  0.00    -0.046 Br
ATOM      9  O   UNL     1       8.144   1.333   2.324  0.00  0.00    -0.451 OA
ATOM     10  C   UNL     1       8.743   0.043   2.097  0.00  0.00    +0.466 C 
ATOM     11  O   UNL     1       7.689  -0.719   1.479  0.00  0.00    -0.453 OA
ENDBRANCH   1   2
BRANCH   1  12
ATOM     12  N   UNL     1       2.120  -0.002   1.231  0.00  0.00    +0.384 N 
ATOM     13  H   UNL     1       2.617  -0.394   0.445  0.00  0.00    -0.085 HD
ATOM     14  H   UNL     1       2.107   1.004   1.154  0.00  0.00    -0.085 HD
BRANCH  12  21
ATOM     15  C   UNL     1      -0.019   1.526   0.010  0.00  0.00    +0.006 C 
ATOM     16  C   UNL     1       0.002  -0.004   0.002  0.00  0.00    -0.028 C 
ATOM     17  C   UNL     1      -1.433  -0.534   0.013  0.00  0.00    +0.002 C 
ATOM     18  C   UNL     1      -1.413  -2.063   0.004  0.00  0.00    +0.000 C 
ATOM     19  C   UNL     1      -0.673  -2.570   1.244  0.00  0.00    -0.002 C 
ATOM     20  C   UNL     1       0.763  -2.041   1.233  0.00  0.00    -0.015 C 
ATOM     21  C   UNL     1       0.742  -0.511   1.242  0.00  0.00    -0.069 C 
ENDBRANCH  12  21
ENDBRANCH   1  12
TORSDOF 3
