REMARK  Name = ZINC40501112
REMARK  7 active torsions:
REMARK  status: ('A' for Active; 'I' for Inactive)
REMARK    1  A    between atoms: C_1  and  C_2
REMARK    2  A    between atoms: C_2  and  C_3
REMARK    3  A    between atoms: C_3  and  O_4
REMARK    4  A    between atoms: O_4  and  C_5
REMARK    5  A    between atoms: N_10  and  S_12
REMARK    6  A    between atoms: S_12  and  C_15
REMARK    7  A    between atoms: C_20  and  N_21
REMARK                            x       y       z     vdW  Elec       q    Type
REMARK                         _______ _______ _______ _____ _____    ______ ____
ROOT
ATOM      1  S   UNL     1       0.855  -4.957   5.020  0.00  0.00    +0.063 S 
ATOM      2  O   UNL     1      -0.534  -5.159   4.800  0.00  0.00    -0.153 OA
ATOM      3  O   UNL     1       1.731  -6.015   5.383  0.00  0.00    -0.153 OA
ENDROOT
BRANCH   1   4
ATOM      4  C   UNL     1       0.992  -3.733   6.281  0.00  0.00    +0.126 A 
ATOM      5  C   UNL     1      -0.146  -3.170   6.824  0.00  0.00    +0.031 A 
ATOM      6  C   UNL     1      -0.040  -2.210   7.813  0.00  0.00    +0.017 A 
ATOM      7  C   UNL     1       1.206  -1.811   8.263  0.00  0.00    +0.020 A 
ATOM      8  C   UNL     1       2.349  -2.371   7.724  0.00  0.00    +0.040 A 
ATOM      9  C   UNL     1       2.244  -3.340   6.734  0.00  0.00    +0.052 A 
ATOM     10 BR   UNL     1       1.346  -0.498   9.617  0.00  0.00    -0.050 Br
BRANCH   9  11
ATOM     11  N   UNL     1       3.397  -3.912   6.190  0.00  0.00    -0.356 N 
ATOM     12  H   UNL     1       3.324  -4.565   5.476  0.00  0.00    +0.142 HD
ATOM     13  H   UNL     1       4.270  -3.657   6.527  0.00  0.00    +0.142 HD
ENDBRANCH   9  11
ENDBRANCH   1   4
BRANCH   1  18
ATOM     14  C   UNL     1       1.406  -2.094   2.577  0.00  0.00    +0.134 C 
ATOM     15  C   UNL     1       2.781  -2.409   1.985  0.00  0.00    +0.034 C 
ATOM     16  C   UNL     1       3.577  -3.272   2.967  0.00  0.00    +0.020 C 
ATOM     17  C   UNL     1       2.836  -4.592   3.196  0.00  0.00    +0.109 C 
ATOM     18  N   UNL     1       1.463  -4.296   3.628  0.00  0.00    -0.174 NA
ATOM     19  C   UNL     1       0.640  -3.401   2.803  0.00  0.00    +0.141 C 
BRANCH  14  20
ATOM     20  O   UNL     1       0.676  -1.263   1.673  0.00  0.00    -0.375 OA
BRANCH  20  21
ATOM     21  C   UNL     1       0.870   0.137   1.884  0.00  0.00    +0.160 C 
BRANCH  21  23
ATOM     22  C   UNL     1       0.252   2.424   1.091  0.00  0.00    +0.006 C 
ATOM     23  C   UNL     1       0.045   0.925   0.865  0.00  0.00    +0.025 C 
ENDBRANCH  21  23
ENDBRANCH  20  21
ENDBRANCH  14  20
ENDBRANCH   1  18
TORSDOF 6
