REMARK  Name = ZINC23862350
REMARK  5 active torsions:
REMARK  status: ('A' for Active; 'I' for Inactive)
REMARK    1  A    between atoms: C_1  and  C_2
REMARK    2  A    between atoms: C_6  and  O_9
REMARK    3  A    between atoms: C_7  and  C_8
REMARK    4  A    between atoms: O_9  and  S_10
REMARK    5  A    between atoms: S_10  and  C_13
REMARK                            x       y       z     vdW  Elec       q    Type
REMARK                         _______ _______ _______ _____ _____    ______ ____
ROOT
ATOM      1  S   UNL     1       0.924  -3.073   3.100  0.00  0.00    +0.151 S 
ATOM      2  O   UNL     1       0.567  -4.002   4.114  0.00  0.00    -0.131 OA
ATOM      3  O   UNL     1       1.877  -3.377   2.090  0.00  0.00    -0.131 OA
ENDROOT
BRANCH   1   4
ATOM      4  C   UNL     1       1.507  -1.628   3.922  0.00  0.00    +0.132 A 
ATOM      5  C   UNL     1       2.361  -0.759   3.267  0.00  0.00    +0.034 A 
ATOM      6  C   UNL     1       2.822   0.378   3.906  0.00  0.00    +0.051 A 
ATOM      7  C   UNL     1       2.425   0.643   5.206  0.00  0.00    +0.162 A 
ATOM      8  C   UNL     1       1.568  -0.229   5.863  0.00  0.00    +0.164 A 
ATOM      9  C   UNL     1       1.105  -1.363   5.219  0.00  0.00    +0.080 A 
ATOM     10  O   UNL     1       1.182   0.043   7.144  0.00  0.00    -0.488 OA
ATOM     11  C   UNL     1       2.205  -0.047   8.137  0.00  0.00    +0.232 C 
ATOM     12  C   UNL     1       2.994   1.251   8.218  0.00  0.00    +0.082 C 
ATOM     13  C   UNL     1       3.765   1.540   6.940  0.00  0.00    +0.232 C 
ATOM     14  O   UNL     1       2.871   1.762   5.848  0.00  0.00    -0.488 OA
ENDBRANCH   1   4
BRANCH   1  15
ATOM     15  O   UNL     1      -0.364  -2.695   2.383  0.00  0.00    -0.342 OA
BRANCH  15  21
ATOM     16  C   UNL     1       0.208  -2.532  -2.461  0.00  0.00    +0.044 C 
ATOM     17  C   UNL     1       0.109  -1.847  -1.123  0.00  0.00    -0.044 A 
ATOM     18  C   UNL     1       0.212  -0.470  -1.043  0.00  0.00    +0.004 A 
ATOM     19  C   UNL     1       0.122   0.162   0.184  0.00  0.00    +0.004 A 
ATOM     20  C   UNL     1      -0.070  -0.581   1.333  0.00  0.00    +0.049 A 
ATOM     21  C   UNL     1      -0.174  -1.962   1.255  0.00  0.00    +0.160 A 
ATOM     22  C   UNL     1      -0.090  -2.593   0.022  0.00  0.00    -0.003 A 
ATOM     23  C   UNL     1      -0.208  -4.093  -0.067  0.00  0.00    +0.048 C 
ENDBRANCH  15  21
ENDBRANCH   1  15
TORSDOF 3
