REMARK  Name = ZINC60089706
REMARK  10 active torsions:
REMARK  status: ('A' for Active; 'I' for Inactive)
REMARK    1  A    between atoms: C_1  and  C_2
REMARK    2  A    between atoms: C_2  and  C_3
REMARK    3  A    between atoms: C_2  and  C_4
REMARK    4  A    between atoms: C_7  and  C_10
REMARK    5  A    between atoms: C_10  and  C_11
REMARK    6  A    between atoms: C_11  and  N_12
REMARK    7  A    between atoms: C_13  and  C_15
REMARK    8  A    between atoms: C_15  and  N_16
REMARK    9  A    between atoms: N_16  and  C_17
REMARK   10  A    between atoms: C_22  and  C_23
REMARK                            x       y       z     vdW  Elec       q    Type
REMARK                         _______ _______ _______ _____ _____    ______ ____
ROOT
ATOM      1  N   UNL     1       3.427  -1.356   6.982  0.00  0.00    -0.314 N 
ATOM      2  C   UNL     1       3.378  -0.652   8.130  0.00  0.00    +0.230 C 
ATOM      3  O   UNL     1       2.758   0.390   8.177  0.00  0.00    -0.274 OA
ATOM      4  H   UNL     1       3.923  -2.189   6.945  0.00  0.00    +0.149 HD
ENDROOT
BRANCH   1   5
ATOM      5  C   UNL     1       2.731  -0.864   5.791  0.00  0.00    +0.109 C 
BRANCH   5   6
ATOM      6  C   UNL     1       2.945  -1.843   4.635  0.00  0.00    +0.054 C 
BRANCH   6  10
ATOM      7  C   UNL     1       0.916  -0.410   1.159  0.00  0.00    -0.045 A 
ATOM      8  C   UNL     1       2.227  -0.041   1.395  0.00  0.00    +0.004 A 
ATOM      9  C   UNL     1       2.884  -0.505   2.520  0.00  0.00    +0.004 A 
ATOM     10  C   UNL     1       2.229  -1.337   3.409  0.00  0.00    -0.046 A 
ATOM     11  C   UNL     1       0.918  -1.706   3.173  0.00  0.00    +0.004 A 
ATOM     12  C   UNL     1       0.260  -1.239   2.050  0.00  0.00    +0.004 A 
BRANCH   7  14
ATOM     13  C   UNL     1       0.161   1.624  -0.041  0.00  0.00    +0.012 C 
ATOM     14  C   UNL     1       0.201   0.095  -0.068  0.00  0.00    +0.013 C 
ATOM     15  C   UNL     1       0.943  -0.374  -1.321  0.00  0.00    +0.012 C 
ENDBRANCH   7  14
ENDBRANCH   6  10
ENDBRANCH   5   6
ENDBRANCH   1   5
BRANCH   2  16
ATOM     16  C   UNL     1       4.094  -1.158   9.356  0.00  0.00    +0.197 C 
BRANCH  16  17
ATOM     17  N   UNL     1       3.889  -0.220  10.463  0.00  0.00    -0.335 N 
ATOM     18  H   UNL     1       3.356   0.579  10.329  0.00  0.00    +0.147 HD
BRANCH  17  19
ATOM     19  C   UNL     1       4.457  -0.477  11.704  0.00  0.00    +0.040 A 
ATOM     20  C   UNL     1       5.127  -1.673  11.932  0.00  0.00    +0.025 A 
ATOM     21  C   UNL     1       5.690  -1.926  13.166  0.00  0.00    +0.022 A 
ATOM     22  C   UNL     1       5.595  -0.991  14.186  0.00  0.00    +0.042 A 
ATOM     23  C   UNL     1       4.935   0.201  13.979  0.00  0.00    +0.035 A 
ATOM     24  C   UNL     1       4.364   0.474  12.732  0.00  0.00    +0.059 A 
ATOM     25 CL   UNL     1       6.309  -1.325  15.733  0.00  0.00    -0.084 Cl
BRANCH  24  26
ATOM     26  C   UNL     1       3.662   1.750  12.501  0.00  0.00    +0.243 C 
ATOM     27  O   UNL     1       3.074   1.939  11.454  0.00  0.00    -0.270 OA
ATOM     28  N   UNL     1       3.672   2.706  13.451  0.00  0.00    -0.325 N 
ATOM     29  H   UNL     1       4.141   2.555  14.287  0.00  0.00    +0.145 HD
ATOM     30  H   UNL     1       3.211   3.546  13.299  0.00  0.00    +0.145 HD
ENDBRANCH  24  26
ENDBRANCH  17  19
ENDBRANCH  16  17
ENDBRANCH   2  16
TORSDOF 8
