REMARK  Name = ZINC40113431
REMARK  9 active torsions:
REMARK  status: ('A' for Active; 'I' for Inactive)
REMARK    1  A    between atoms: C_1  and  C_2
REMARK    2  A    between atoms: C_3  and  C_11
REMARK    3  A    between atoms: C_8  and  C_10
REMARK    4  A    between atoms: C_11  and  C_12
REMARK    5  A    between atoms: N_14  and  C_15
REMARK    6  A    between atoms: C_15  and  C_16
REMARK    7  A    between atoms: C_16  and  C_17
REMARK    8  A    between atoms: C_16  and  C_18
REMARK    9  A    between atoms: C_16  and  C_19
REMARK                            x       y       z     vdW  Elec       q    Type
REMARK                         _______ _______ _______ _____ _____    ______ ____
ROOT
ATOM      1  C   UNL     1      -3.000   0.156  -1.397  0.00  0.00    +0.218 C 
ATOM      2  O   UNL     1      -2.350  -0.285  -2.321  0.00  0.00    -0.275 OA
ATOM      3  N   UNL     1      -4.176   0.770  -1.633  0.00  0.00    -0.314 N 
ATOM      4  H   UNL     1      -4.696   1.123  -0.893  0.00  0.00    +0.149 HD
ENDROOT
BRANCH   1   5
ATOM      5  C   UNL     1      -2.492   0.017   0.015  0.00  0.00    +0.138 C 
BRANCH   5   8
ATOM      6  C   UNL     1      -0.018   1.503   0.010  0.00  0.00    +0.066 C 
ATOM      7  C   UNL     1       0.002  -0.004   0.002  0.00  0.00    +0.049 A 
ATOM      8  C   UNL     1      -1.167  -0.702   0.004  0.00  0.00    +0.047 A 
ATOM      9  C   UNL     1      -1.113  -2.111  -0.005  0.00  0.00    +0.255 A 
ATOM     10  O   UNL     1      -2.136  -2.774  -0.004  0.00  0.00    -0.267 OA
ATOM     11  N   UNL     1       0.097  -2.710  -0.014  0.00  0.00    -0.311 N 
ATOM     12  H   UNL     1       0.160  -3.678  -0.020  0.00  0.00    +0.170 HD
ATOM     13  C   UNL     1       1.218  -1.962  -0.015  0.00  0.00    +0.107 A 
ATOM     14  N   UNL     1       1.167  -0.657  -0.013  0.00  0.00    -0.239 NA
ATOM     15  C   UNL     1       2.560  -2.647  -0.026  0.00  0.00    +0.086 C 
ENDBRANCH   5   8
ENDBRANCH   1   5
BRANCH   3  16
ATOM     16  C   UNL     1      -4.670   0.905  -3.005  0.00  0.00    +0.115 C 
BRANCH  16  17
ATOM     17  C   UNL     1      -6.015   1.635  -2.994  0.00  0.00    +0.006 C 
ATOM     18  C   UNL     1      -7.022   0.834  -2.166  0.00  0.00    +0.017 C 
ATOM     19  C   UNL     1      -5.837   3.023  -2.377  0.00  0.00    +0.017 C 
BRANCH  17  20
ATOM     20  C   UNL     1      -6.523   1.774  -4.406  0.00  0.00    -0.040 A 
ATOM     21  C   UNL     1      -5.785   1.267  -5.459  0.00  0.00    +0.005 A 
ATOM     22  C   UNL     1      -6.250   1.394  -6.754  0.00  0.00    +0.015 A 
ATOM     23  C   UNL     1      -7.455   2.029  -6.997  0.00  0.00    +0.018 A 
ATOM     24  C   UNL     1      -8.193   2.537  -5.943  0.00  0.00    +0.015 A 
ATOM     25  C   UNL     1      -7.729   2.404  -4.647  0.00  0.00    +0.005 A 
ATOM     26 BR   UNL     1      -8.092   2.204  -8.768  0.00  0.00    -0.050 Br
ENDBRANCH  17  20
ENDBRANCH  16  17
ENDBRANCH   3  16
TORSDOF 5
