REMARK  Name = ZINC39327346
REMARK  8 active torsions:
REMARK  status: ('A' for Active; 'I' for Inactive)
REMARK    1  A    between atoms: N_11  and  C_12
REMARK    2  A    between atoms: C_12  and  C_13
REMARK    3  A    between atoms: C_13  and  C_14
REMARK    4  A    between atoms: C_14  and  S_15
REMARK    5  A    between atoms: S_15  and  C_16
REMARK    6  A    between atoms: C_17  and  C_35
REMARK    7  A    between atoms: C_18  and  C_31
REMARK    8  A    between atoms: C_20  and  C_22
REMARK                            x       y       z     vdW  Elec       q    Type
REMARK                         _______ _______ _______ _____ _____    ______ ____
ROOT
ATOM      1  C   UNL     1       9.205   0.317   2.903  0.00  0.00    +0.116 A 
ATOM      2  C   UNL     1      10.011   0.475   4.046  0.00  0.00    +0.095 A 
ATOM      3  C   UNL     1      11.371   0.766   3.882  0.00  0.00    +0.077 A 
ATOM      4  C   UNL     1      11.869   0.886   2.600  0.00  0.00    +0.042 A 
ATOM      5  C   UNL     1      11.011   0.717   1.512  0.00  0.00    +0.073 A 
ATOM      6  N   UNL     1       9.726   0.436   1.693  0.00  0.00    -0.239 NA
ENDROOT
BRANCH   5   7
ATOM      7  C   UNL     1      11.543   0.846   0.136  0.00  0.00    +0.004 A 
ATOM      8  C   UNL     1      12.894   1.129  -0.067  0.00  0.00    +0.014 A 
ATOM      9  C   UNL     1      13.388   1.248  -1.349  0.00  0.00    +0.050 A 
ATOM     10  C   UNL     1      12.546   1.088  -2.440  0.00  0.00    +0.166 A 
ATOM     11  C   UNL     1      11.195   0.804  -2.242  0.00  0.00    +0.167 A 
ATOM     12  C   UNL     1      10.696   0.678  -0.959  0.00  0.00    +0.059 A 
ATOM     13  O   UNL     1      10.590   0.695  -3.462  0.00  0.00    -0.453 OA
ATOM     14  C   UNL     1      11.492   1.317  -4.395  0.00  0.00    +0.466 C 
ATOM     15  O   UNL     1      12.784   1.156  -3.782  0.00  0.00    -0.453 OA
ENDBRANCH   5   7
BRANCH   3  16
ATOM     16  C   UNL     1      12.271   0.944   5.078  0.00  0.00    +0.419 C 
ATOM     17  F   UNL     1      13.572   1.225   4.645  0.00  0.00    -0.166 F 
ATOM     18  F   UNL     1      11.801   2.003   5.861  0.00  0.00    -0.166 F 
ATOM     19  F   UNL     1      12.276  -0.231   5.837  0.00  0.00    -0.166 F 
ENDBRANCH   3  16
BRANCH   2  20
ATOM     20  C   UNL     1       9.449   0.341   5.356  0.00  0.00    +0.102 C 
ATOM     21  N   UNL     1       9.003   0.235   6.396  0.00  0.00    -0.191 NA
ENDBRANCH   2  20
BRANCH   1  22
ATOM     22  S   UNL     1       7.491  -0.050   3.085  0.00  0.00    -0.105 S 
BRANCH  22  23
ATOM     23  C   UNL     1       6.884  -0.168   1.380  0.00  0.00    +0.077 C 
BRANCH  23  24
ATOM     24  C   UNL     1       5.388  -0.487   1.392  0.00  0.00    +0.033 C 
BRANCH  24  25
ATOM     25  C   UNL     1       4.875  -0.586  -0.046  0.00  0.00    +0.128 C 
BRANCH  25  36
ATOM     26  C   UNL     1      -0.017   1.377   0.010  0.00  0.00    +0.002 A 
ATOM     27  C   UNL     1       1.169   2.091   0.002  0.00  0.00    +0.002 A 
ATOM     28  C   UNL     1       2.381   1.429  -0.013  0.00  0.00    +0.028 A 
ATOM     29  C   UNL     1       2.410   0.043  -0.021  0.00  0.00    +0.070 A 
ATOM     30  C   UNL     1       1.214  -0.678  -0.013  0.00  0.00    +0.067 A 
ATOM     31  C   UNL     1       0.002  -0.004   0.002  0.00  0.00    +0.028 A 
ATOM     32  N   UNL     1       1.557  -2.028  -0.023  0.00  0.00    -0.306 N 
ATOM     33  H   UNL     1       0.934  -2.772  -0.021  0.00  0.00    +0.170 HD
ATOM     34  C   UNL     1       2.900  -2.124  -0.036  0.00  0.00    +0.328 A 
ATOM     35  O   UNL     1       3.528  -3.166  -0.047  0.00  0.00    -0.247 OA
ATOM     36  N   UNL     1       3.443  -0.892  -0.035  0.00  0.00    -0.292 N 
ENDBRANCH  25  36
ENDBRANCH  24  25
ENDBRANCH  23  24
ENDBRANCH  22  23
ENDBRANCH   1  22
TORSDOF 8
