REMARK  Name = ZINC20530398
REMARK  6 active torsions:
REMARK  status: ('A' for Active; 'I' for Inactive)
REMARK    1  A    between atoms: C_4  and  C_7
REMARK    2  A    between atoms: C_10  and  C_13
REMARK    3  A    between atoms: N_15  and  C_25
REMARK    4  A    between atoms: C_16  and  C_19
REMARK    5  A    between atoms: C_28  and  S_31
REMARK    6  A    between atoms: S_31  and  N_34
REMARK                            x       y       z     vdW  Elec       q    Type
REMARK                         _______ _______ _______ _____ _____    ______ ____
ROOT
ATOM      1  C   UNL     1      -1.944   2.383   0.621  0.00  0.00    +0.069 C 
ATOM      2  N   UNL     1      -1.865   2.330  -0.665  0.00  0.00    -0.183 NA
ATOM      3  N   UNL     1      -0.777   1.600  -1.139  0.00  0.00    -0.216 N 
ATOM      4  C   UNL     1      -0.013   1.086   0.008  0.00  0.00    +0.134 C 
ATOM      5  C   UNL     1      -0.791   1.611   1.231  0.00  0.00    +0.087 C 
ENDROOT
BRANCH   1   9
ATOM      6  C   UNL     1      -4.963   4.413   2.811  0.00  0.00    -0.018 A 
ATOM      7  C   UNL     1      -4.985   4.427   1.416  0.00  0.00    +0.009 A 
ATOM      8  C   UNL     1      -4.007   3.770   0.704  0.00  0.00    +0.010 A 
ATOM      9  C   UNL     1      -2.991   3.087   1.381  0.00  0.00    -0.002 A 
ATOM     10  C   UNL     1      -2.973   3.069   2.779  0.00  0.00    +0.010 A 
ATOM     11  C   UNL     1      -3.950   3.732   3.487  0.00  0.00    +0.009 A 
BRANCH   6  15
ATOM     12  C   UNL     1      -7.987   6.443   5.003  0.00  0.00    +0.000 A 
ATOM     13  C   UNL     1      -6.983   5.769   5.676  0.00  0.00    +0.001 A 
ATOM     14  C   UNL     1      -5.999   5.108   4.969  0.00  0.00    +0.008 A 
ATOM     15  C   UNL     1      -6.017   5.121   3.575  0.00  0.00    -0.018 A 
ATOM     16  C   UNL     1      -7.028   5.806   2.903  0.00  0.00    +0.008 A 
ATOM     17  C   UNL     1      -8.011   6.458   3.620  0.00  0.00    +0.001 A 
ENDBRANCH   6  15
ENDBRANCH   1   9
BRANCH   4  18
ATOM     18  C   UNL     1       1.391   1.634  -0.003  0.00  0.00    -0.025 A 
ATOM     19  C   UNL     1       1.625   2.929  -0.426  0.00  0.00    +0.005 A 
ATOM     20  C   UNL     1       2.912   3.433  -0.431  0.00  0.00    +0.000 A 
ATOM     21  C   UNL     1       3.967   2.639  -0.022  0.00  0.00    +0.000 A 
ATOM     22  C   UNL     1       3.734   1.342   0.396  0.00  0.00    +0.000 A 
ATOM     23  C   UNL     1       2.446   0.839   0.406  0.00  0.00    +0.005 A 
ENDBRANCH   4  18
BRANCH   3  24
ATOM     24  C   UNL     1      -0.465   1.389  -2.483  0.00  0.00    +0.052 A 
ATOM     25  C   UNL     1       0.656   0.643  -2.829  0.00  0.00    +0.027 A 
ATOM     26  C   UNL     1       0.960   0.433  -4.159  0.00  0.00    +0.030 A 
ATOM     27  C   UNL     1       0.156   0.973  -5.147  0.00  0.00    +0.105 A 
ATOM     28  C   UNL     1      -0.957   1.720  -4.807  0.00  0.00    +0.030 A 
ATOM     29  C   UNL     1      -1.270   1.930  -3.478  0.00  0.00    +0.027 A 
BRANCH  27  30
ATOM     30  S   UNL     1       0.551   0.708  -6.844  0.00  0.00    +0.056 S 
ATOM     31  O   UNL     1       1.331  -0.479  -6.898  0.00  0.00    -0.153 OA
ATOM     32  O   UNL     1      -0.660   0.858  -7.571  0.00  0.00    -0.153 OA
BRANCH  30  33
ATOM     33  N   UNL     1       1.543   1.948  -7.315  0.00  0.00    -0.204 NA
ATOM     34  H   UNL     1       1.814   1.818  -8.373  0.00  0.00    +0.144 HD
ATOM     35  H   UNL     1       2.455   1.942  -6.700  0.00  0.00    +0.144 HD
ENDBRANCH  30  33
ENDBRANCH  27  30
ENDBRANCH   3  24
TORSDOF 6
