REMARK  Name = ZINC35418812
REMARK  8 active torsions:
REMARK  status: ('A' for Active; 'I' for Inactive)
REMARK    1  A    between atoms: C_1  and  C_2
REMARK    2  A    between atoms: C_2  and  C_3
REMARK    3  A    between atoms: C_2  and  C_4
REMARK    4  A    between atoms: C_4  and  S_5
REMARK    5  A    between atoms: S_5  and  C_6
REMARK    6  A    between atoms: C_13  and  C_27
REMARK    7  A    between atoms: C_21  and  C_25
REMARK    8  A    between atoms: C_21  and  C_26
REMARK                            x       y       z     vdW  Elec       q    Type
REMARK                         _______ _______ _______ _____ _____    ______ ____
ROOT
ATOM      1  C   UNL     1      -3.116  -2.791  -0.118  0.00  0.00    +0.171 A 
ATOM      2  N   UNL     1      -4.030  -1.850  -0.004  0.00  0.00    -0.208 NA
ATOM      3  C   UNL     1      -5.335  -2.152   0.021  0.00  0.00    +0.131 A 
ATOM      4  C   UNL     1      -5.739  -3.471  -0.086  0.00  0.00    +0.065 A 
ATOM      5  C   UNL     1      -4.761  -4.466  -0.203  0.00  0.00    +0.258 A 
ATOM      6  O   UNL     1      -5.079  -5.641  -0.294  0.00  0.00    -0.267 OA
ATOM      7  N   UNL     1      -3.461  -4.104  -0.219  0.00  0.00    -0.302 N 
ATOM      8  C   UNL     1      -7.191  -3.857  -0.087  0.00  0.00    +0.070 C 
ATOM      9  C   UNL     1      -8.047  -2.760   0.549  0.00  0.00    +0.087 C 
ATOM     10  C   UNL     1      -7.669  -1.410  -0.079  0.00  0.00    +0.083 C 
ATOM     11  N   UNL     1      -6.264  -1.139   0.163  0.00  0.00    -0.325 N 
ATOM     12  C   UNL     1      -7.928  -1.462  -1.583  0.00  0.00    +0.029 C 
ATOM     13  C   UNL     1      -9.427  -1.631  -1.839  0.00  0.00    -0.027 C 
ATOM     14  C   UNL     1      -9.901  -2.965  -1.256  0.00  0.00    +0.081 C 
ATOM     15  C   UNL     1      -9.501  -3.039   0.217  0.00  0.00    +0.140 C 
ATOM     16  O   UNL     1     -10.299  -3.300   1.084  0.00  0.00    -0.297 OA
ATOM     17  C   UNL     1      -9.691  -1.612  -3.346  0.00  0.00    +0.011 C 
ATOM     18  C   UNL     1     -10.190  -0.484  -1.174  0.00  0.00    +0.011 C 
ATOM     19  H   UNL     1      -5.979  -0.251   0.429  0.00  0.00    +0.148 HD
ATOM     20  H   UNL     1      -2.772  -4.782  -0.299  0.00  0.00    +0.171 HD
ENDROOT
BRANCH   8  21
ATOM     21  C   UNL     1      -7.365  -5.135   0.692  0.00  0.00    -0.039 A 
ATOM     22  C   UNL     1      -7.009  -5.184   2.027  0.00  0.00    +0.004 A 
ATOM     23  C   UNL     1      -7.168  -6.356   2.743  0.00  0.00    +0.000 A 
ATOM     24  C   UNL     1      -7.684  -7.479   2.123  0.00  0.00    +0.000 A 
ATOM     25  C   UNL     1      -8.041  -7.430   0.789  0.00  0.00    +0.000 A 
ATOM     26  C   UNL     1      -7.886  -6.256   0.074  0.00  0.00    +0.004 A 
ENDBRANCH   8  21
BRANCH   1  27
ATOM     27  S   UNL     1      -1.412  -2.341  -0.146  0.00  0.00    -0.088 S 
BRANCH  27  28
ATOM     28  C   UNL     1      -1.433  -0.534   0.013  0.00  0.00    +0.080 C 
BRANCH  28  30
ATOM     29  C   UNL     1      -0.019   1.526   0.010  0.00  0.00    +0.008 C 
ATOM     30  C   UNL     1       0.002  -0.004   0.002  0.00  0.00    -0.007 C 
ATOM     31  C   UNL     1       0.742  -0.511   1.242  0.00  0.00    +0.008 C 
ENDBRANCH  28  30
ENDBRANCH  27  28
ENDBRANCH   1  27
TORSDOF 4
