REMARK  Name = ZINC66076265
REMARK  3 active torsions:
REMARK  status: ('A' for Active; 'I' for Inactive)
REMARK    1  A    between atoms: C_8  and  C_10
REMARK    2  A    between atoms: N_15  and  C_17
REMARK    3  A    between atoms: C_17  and  N_18
REMARK                            x       y       z     vdW  Elec       q    Type
REMARK                         _______ _______ _______ _____ _____    ______ ____
ROOT
ATOM      1  C   UNL     1       3.642  -3.377  -0.051  0.00  0.00    +0.089 C 
ATOM      2  C   UNL     1       4.513  -3.437  -1.310  0.00  0.00    +0.015 C 
ATOM      3  C   UNL     1       5.341  -4.725  -1.287  0.00  0.00    +0.016 C 
ATOM      4  C   UNL     1       6.187  -4.759  -0.012  0.00  0.00    +0.086 C 
ATOM      5  N   UNL     1       5.308  -4.700   1.163  0.00  0.00    -0.284 NA
ATOM      6  C   UNL     1       4.537  -3.451   1.188  0.00  0.00    +0.099 C 
ENDROOT
BRANCH   1  14
ATOM      7  C   UNL     1      -0.017   1.373   0.010  0.00  0.00    +0.002 A 
ATOM      8  C   UNL     1       1.170   2.091   0.002  0.00  0.00    +0.004 A 
ATOM      9  C   UNL     1       2.384   1.437  -0.013  0.00  0.00    +0.048 A 
ATOM     10  C   UNL     1       2.421   0.051  -0.021  0.00  0.00    +0.155 A 
ATOM     11  C   UNL     1       1.223  -0.680  -0.013  0.00  0.00    +0.110 A 
ATOM     12  C   UNL     1       0.002  -0.004   0.002  0.00  0.00    +0.031 A 
ATOM     13  N   UNL     1       1.572  -1.995  -0.024  0.00  0.00    -0.213 NA
ATOM     14  C   UNL     1       2.868  -2.084  -0.037  0.00  0.00    +0.201 A 
ATOM     15  O   UNL     1       3.419  -0.860  -0.036  0.00  0.00    -0.439 OA
ENDBRANCH   1  14
BRANCH   5  16
ATOM     16  C   UNL     1       6.076  -4.870   2.404  0.00  0.00    +0.213 C 
BRANCH  16  17
ATOM     17  N   UNL     1       6.327  -6.295   2.631  0.00  0.00    -0.292 N 
ATOM     18  C   UNL     1       5.429  -7.046   3.350  0.00  0.00    +0.034 A 
ATOM     19  C   UNL     1       5.757  -8.336   3.497  0.00  0.00    +0.014 A 
ATOM     20  S   UNL     1       7.299  -8.473   2.636  0.00  0.00    -0.031 S 
ATOM     21  C   UNL     1       7.437  -6.873   2.131  0.00  0.00    +0.292 A 
ATOM     22  O   UNL     1       8.326  -6.361   1.474  0.00  0.00    -0.259 OA
ATOM     23  C   UNL     1       4.992  -9.396   4.221  0.00  0.00    +0.044 C 
ATOM     24  C   UNL     1       3.933  -8.712   5.099  0.00  0.00    +0.006 C 
ATOM     25  C   UNL     1       3.202  -7.659   4.260  0.00  0.00    +0.006 C 
ATOM     26  C   UNL     1       4.143  -6.493   3.951  0.00  0.00    +0.054 C 
ENDBRANCH  16  17
ENDBRANCH   5  16
TORSDOF 3
