REMARK  Name = ZINC39898101
REMARK  14 active torsions:
REMARK  status: ('A' for Active; 'I' for Inactive)
REMARK    1  A    between atoms: C_1  and  C_2
REMARK    2  A    between atoms: C_2  and  C_3
REMARK    3  A    between atoms: C_3  and  O_4
REMARK    4  A    between atoms: O_4  and  C_5
REMARK    5  A    between atoms: C_8  and  C_14
REMARK    6  A    between atoms: C_10  and  O_11
REMARK    7  A    between atoms: O_11  and  C_12
REMARK    8  A    between atoms: C_12  and  C_13
REMARK    9  A    between atoms: C_17  and  C_29
REMARK   10  A    between atoms: N_24  and  C_25
REMARK   11  A    between atoms: C_25  and  C_26
REMARK   12  A    between atoms: C_26  and  C_27
REMARK   13  A    between atoms: C_27  and  O_28
REMARK   14  A    between atoms: C_34  and  O_35
REMARK                            x       y       z     vdW  Elec       q    Type
REMARK                         _______ _______ _______ _____ _____    ______ ____
ROOT
ATOM      1  C   UNL     1       2.582  -3.994  -5.703  0.00  0.00    +0.141 C 
ATOM      2  C   UNL     1       4.052  -4.250  -5.896  0.00  0.00    +0.035 A 
ATOM      3  C   UNL     1       5.217  -4.854  -5.412  0.00  0.00    +0.102 A 
ATOM      4  N   UNL     1       6.188  -4.572  -6.258  0.00  0.00    -0.173 NA
ATOM      5  N   UNL     1       5.752  -3.850  -7.228  0.00  0.00    -0.272 N 
ATOM      6  H   UNL     1       6.290  -3.525  -7.966  0.00  0.00    +0.189 HD
ATOM      7  C   UNL     1       4.417  -3.610  -7.064  0.00  0.00    +0.126 A 
ATOM      8  C   UNL     1       3.232  -2.952  -7.626  0.00  0.00    +0.265 C 
ATOM      9  O   UNL     1       3.220  -2.303  -8.654  0.00  0.00    -0.268 OA
ATOM     10  N   UNL     1       2.159  -3.170  -6.842  0.00  0.00    -0.285 N 
ENDROOT
BRANCH   3  11
ATOM     11  C   UNL     1       5.338  -5.662  -4.173  0.00  0.00    +0.045 A 
ATOM     12  C   UNL     1       4.202  -5.989  -3.437  0.00  0.00    +0.033 A 
ATOM     13  C   UNL     1       4.320  -6.741  -2.285  0.00  0.00    +0.042 A 
ATOM     14  C   UNL     1       5.565  -7.173  -1.859  0.00  0.00    +0.023 A 
ATOM     15  C   UNL     1       6.698  -6.854  -2.583  0.00  0.00    +0.047 A 
ATOM     16  C   UNL     1       6.593  -6.104  -3.743  0.00  0.00    +0.126 A 
ATOM     17 CL   UNL     1       2.903  -7.147  -1.367  0.00  0.00    -0.084 Cl
BRANCH  16  18
ATOM     18  O   UNL     1       7.706  -5.795  -4.459  0.00  0.00    -0.506 OA
ATOM     19  H   UNL     1       8.127  -4.966  -4.193  0.00  0.00    +0.292 HD
ENDBRANCH  16  18
ENDBRANCH   3  11
BRANCH   1  23
ATOM     20  C   UNL     1       1.923  -1.893  -2.036  0.00  0.00    +0.162 A 
ATOM     21  C   UNL     1       1.481  -3.199  -2.179  0.00  0.00    +0.050 A 
ATOM     22  C   UNL     1       1.696  -3.875  -3.366  0.00  0.00    +0.009 A 
ATOM     23  C   UNL     1       2.351  -3.252  -4.412  0.00  0.00    -0.019 A 
ATOM     24  C   UNL     1       2.794  -1.949  -4.275  0.00  0.00    +0.055 A 
ATOM     25  C   UNL     1       2.577  -1.264  -3.091  0.00  0.00    +0.162 A 
BRANCH  20  26
ATOM     26  O   UNL     1       1.712  -1.226  -0.870  0.00  0.00    -0.488 OA
BRANCH  26  27
ATOM     27  C   UNL     1       1.034  -1.935   0.170  0.00  0.00    +0.229 C 
BRANCH  27  29
ATOM     28  C   UNL     1       0.165  -1.789   2.507  0.00  0.00    +0.007 C 
ATOM     29  C   UNL     1       0.890  -1.030   1.394  0.00  0.00    +0.038 C 
ENDBRANCH  27  29
ENDBRANCH  26  27
ENDBRANCH  20  26
BRANCH  25  30
ATOM     30  O   UNL     1       3.007   0.020  -2.958  0.00  0.00    -0.489 OA
BRANCH  30  31
ATOM     31  C   UNL     1       3.593   0.630  -4.109  0.00  0.00    +0.226 C 
ATOM     32  C   UNL     1       3.932   2.089  -3.795  0.00  0.00    +0.048 C 
ENDBRANCH  30  31
ENDBRANCH  25  30
ENDBRANCH   1  23
BRANCH  10  33
ATOM     33  C   UNL     1       0.802  -2.671  -7.083  0.00  0.00    +0.111 C 
BRANCH  33  34
ATOM     34  C   UNL     1       0.636  -1.303  -6.418  0.00  0.00    +0.047 C 
BRANCH  34  35
ATOM     35  C   UNL     1      -0.780  -0.782  -6.670  0.00  0.00    +0.157 C 
BRANCH  35  36
ATOM     36  O   UNL     1      -0.936   0.495  -6.048  0.00  0.00    -0.395 OA
ATOM     37  H   UNL     1      -1.812   0.886  -6.167  0.00  0.00    +0.209 HD
ENDBRANCH  35  36
ENDBRANCH  34  35
ENDBRANCH  33  34
ENDBRANCH  10  33
TORSDOF 12
