REMARK  Name = ZINC12807561
REMARK  6 active torsions:
REMARK  status: ('A' for Active; 'I' for Inactive)
REMARK    1  A    between atoms: C_2  and  N_9
REMARK    2  A    between atoms: C_10  and  C_12
REMARK    3  A    between atoms: C_12  and  C_13
REMARK    4  A    between atoms: C_13  and  C_14
REMARK    5  A    between atoms: C_14  and  N_15
REMARK    6  A    between atoms: C_16  and  C_18
REMARK                            x       y       z     vdW  Elec       q    Type
REMARK                         _______ _______ _______ _____ _____    ______ ____
ROOT
ATOM      1  C   UNL     1      -2.716   9.424  -0.360  0.00  0.00    +0.104 C 
ENDROOT
BRANCH   1   2
ATOM      2  N   UNL     1      -4.101   9.895  -0.441  0.00  0.00    -0.315 N 
ATOM      3  C   UNL     1      -4.360  11.214  -0.544  0.00  0.00    +0.219 C 
ATOM      4  O   UNL     1      -3.446  12.011  -0.568  0.00  0.00    -0.275 OA
ATOM      5  H   UNL     1      -4.832   9.258  -0.422  0.00  0.00    +0.149 HD
BRANCH   3   6
ATOM      6  C   UNL     1      -5.785  11.698  -0.628  0.00  0.00    +0.048 C 
ATOM      7  C   UNL     1      -6.457  11.093  -1.861  0.00  0.00    +0.019 C 
ATOM      8  C   UNL     1      -7.903  11.584  -1.946  0.00  0.00    -0.009 C 
ATOM      9  C   UNL     1      -7.918  13.111  -2.055  0.00  0.00    +0.007 C 
ATOM     10  C   UNL     1      -7.245  13.716  -0.821  0.00  0.00    -0.009 C 
ATOM     11  C   UNL     1      -5.799  13.224  -0.736  0.00  0.00    +0.019 C 
ATOM     12  C   UNL     1      -8.005  13.287   0.436  0.00  0.00    +0.007 C 
ATOM     13  C   UNL     1      -7.990  11.761   0.544  0.00  0.00    -0.009 C 
ATOM     14  C   UNL     1      -8.663  11.155  -0.690  0.00  0.00    +0.007 C 
ATOM     15  C   UNL     1      -6.544  11.269   0.629  0.00  0.00    +0.019 C 
ENDBRANCH   3   6
ENDBRANCH   1   2
BRANCH   1  16
ATOM     16  C   UNL     1      -2.702   7.898  -0.251  0.00  0.00    +0.028 C 
BRANCH  16  17
ATOM     17  C   UNL     1      -1.256   7.406  -0.166  0.00  0.00    +0.097 C 
BRANCH  17  19
ATOM     18  N   UNL     1      -0.069   5.245   0.028  0.00  0.00    -0.285 N 
ATOM     19  C   UNL     1      -1.242   5.903  -0.059  0.00  0.00    +0.217 C 
ATOM     20  O   UNL     1      -2.286   5.286  -0.052  0.00  0.00    -0.275 OA
ATOM     21  H   UNL     1       0.761   5.741   0.099  0.00  0.00    +0.155 HD
BRANCH  18  23
ATOM     22  C   UNL     1       0.908   3.157   0.749  0.00  0.00    +0.061 A 
ATOM     23  C   UNL     1      -0.050   3.846   0.016  0.00  0.00    +0.039 A 
ATOM     24  C   UNL     1      -0.988   3.144  -0.728  0.00  0.00    +0.061 A 
ATOM     25  C   UNL     1      -0.968   1.760  -0.739  0.00  0.00    +0.128 A 
ATOM     26  C   UNL     1      -0.012   1.076  -0.007  0.00  0.00    +0.076 A 
ATOM     27  C   UNL     1       0.922   1.774   0.740  0.00  0.00    +0.128 A 
ATOM     28  F   UNL     1       1.850   1.104   1.458  0.00  0.00    -0.205 F 
ATOM     29  F   UNL     1      -1.881   1.077  -1.463  0.00  0.00    -0.205 F 
ENDBRANCH  18  23
ENDBRANCH  17  19
ENDBRANCH  16  17
ENDBRANCH   1  16
TORSDOF 6
