REMARK  Name = ZINC36597750
REMARK  14 active torsions:
REMARK  status: ('A' for Active; 'I' for Inactive)
REMARK    1  A    between atoms: C_1  and  C_2
REMARK    2  A    between atoms: C_5  and  C_7
REMARK    3  A    between atoms: C_7  and  N_8
REMARK    4  A    between atoms: N_8  and  C_9
REMARK    5  A    between atoms: C_9  and  C_11
REMARK    6  A    between atoms: C_9  and  C_21
REMARK    7  A    between atoms: C_13  and  N_18
REMARK    8  A    between atoms: N_23  and  C_24
REMARK    9  A    between atoms: C_24  and  C_25
REMARK   10  A    between atoms: C_24  and  C_26
REMARK   11  A    between atoms: C_24  and  C_27
REMARK   12  A    between atoms: C_28  and  C_30
REMARK   13  A    between atoms: C_34  and  O_37
REMARK   14  A    between atoms: C_35  and  O_36
REMARK                            x       y       z     vdW  Elec       q    Type
REMARK                         _______ _______ _______ _____ _____    ______ ____
ROOT
ATOM      1  N   UNL     1      -0.111  -4.594  -2.703  0.00  0.00    -0.274 N 
ATOM      2  C   UNL     1      -0.262  -5.194  -1.505  0.00  0.00    +0.252 C 
ATOM      3  O   UNL     1       0.464  -4.891  -0.578  0.00  0.00    -0.270 OA
ENDROOT
BRANCH   2   4
ATOM      4  C   UNL     1      -1.308  -6.217  -1.319  0.00  0.00    +0.082 A 
ATOM      5  C   UNL     1      -1.624  -7.097  -2.359  0.00  0.00    +0.017 A 
ATOM      6  C   UNL     1      -2.601  -8.051  -2.182  0.00  0.00    +0.005 A 
ATOM      7  C   UNL     1      -3.276  -8.146  -0.976  0.00  0.00    +0.049 A 
ATOM      8  C   UNL     1      -2.975  -7.282   0.063  0.00  0.00    +0.159 A 
ATOM      9  C   UNL     1      -1.987  -6.316  -0.099  0.00  0.00    +0.171 A 
BRANCH   9  10
ATOM     10  O   UNL     1      -1.685  -5.471   0.920  0.00  0.00    -0.503 OA
ATOM     11  H   UNL     1      -2.206  -4.657   0.923  0.00  0.00    +0.292 HD
ENDBRANCH   9  10
BRANCH   8  12
ATOM     12  O   UNL     1      -3.643  -7.381   1.244  0.00  0.00    -0.503 OA
ATOM     13  H   UNL     1      -3.227  -7.977   1.882  0.00  0.00    +0.292 HD
ENDBRANCH   8  12
ENDBRANCH   2   4
BRANCH   1  14
ATOM     14  C   UNL     1       0.306  -3.192  -2.773  0.00  0.00    +0.183 C 
BRANCH  14  19
ATOM     15  C   UNL     1      -3.460  -0.603  -4.908  0.00  0.00    +0.086 C 
ATOM     16  C   UNL     1      -2.546  -1.188  -3.863  0.00  0.00    +0.102 A 
ATOM     17  C   UNL     1      -2.650  -1.003  -2.534  0.00  0.00    +0.045 A 
ATOM     18  C   UNL     1      -1.595  -1.729  -1.936  0.00  0.00    +0.046 A 
ATOM     19  C   UNL     1      -0.909  -2.314  -2.934  0.00  0.00    +0.122 A 
ATOM     20  O   UNL     1      -1.493  -1.988  -4.098  0.00  0.00    -0.463 OA
ENDBRANCH  14  19
ENDBRANCH   1  14
BRANCH   1  21
ATOM     21  C   UNL     1      -0.364  -5.345  -3.935  0.00  0.00    +0.194 C 
BRANCH  21  22
ATOM     22  C   UNL     1       0.409  -6.639  -3.902  0.00  0.00    +0.002 A 
ATOM     23  C   UNL     1       0.543  -7.334  -2.715  0.00  0.00    +0.040 A 
ATOM     24  C   UNL     1       1.252  -8.520  -2.685  0.00  0.00    +0.127 A 
ATOM     25  C   UNL     1       1.828  -9.012  -3.842  0.00  0.00    +0.034 A 
ATOM     26  C   UNL     1       1.694  -8.318  -5.029  0.00  0.00    +0.022 A 
ATOM     27  C   UNL     1       0.980  -7.133  -5.061  0.00  0.00    +0.047 A 
ATOM     28 CL   UNL     1       0.805  -6.264  -6.554  0.00  0.00    -0.083 Cl
BRANCH  24  29
ATOM     29  N   UNL     1       1.396  -9.264  -1.413  0.00  0.00    +0.056 N 
ATOM     30  O   UNL     1       0.893  -8.834  -0.402  0.00  0.00    -0.126 OA
ATOM     31  O   UNL     1       2.016 -10.301  -1.387  0.00  0.00    -0.126 OA
ENDBRANCH  24  29
ENDBRANCH  21  22
BRANCH  21  32
ATOM     32  C   UNL     1      -1.837  -5.643  -4.049  0.00  0.00    +0.239 C 
ATOM     33  O   UNL     1      -2.600  -5.265  -3.186  0.00  0.00    -0.273 OA
ATOM     34  N   UNL     1      -2.305  -6.329  -5.110  0.00  0.00    -0.309 N 
ATOM     35  H   UNL     1      -1.695  -6.632  -5.800  0.00  0.00    +0.149 HD
BRANCH  34  36
ATOM     36  C   UNL     1      -3.737  -6.619  -5.221  0.00  0.00    +0.026 C 
ATOM     37  C   UNL     1      -4.522  -5.306  -5.254  0.00  0.00    +0.031 C 
ATOM     38  C   UNL     1      -4.001  -7.403  -6.507  0.00  0.00    +0.031 C 
ATOM     39  C   UNL     1      -4.184  -7.449  -4.016  0.00  0.00    +0.031 C 
ENDBRANCH  34  36
ENDBRANCH  21  32
ENDBRANCH   1  21
TORSDOF 10
