REMARK  Name = ZINC09486951
REMARK  6 active torsions:
REMARK  status: ('A' for Active; 'I' for Inactive)
REMARK    1  A    between atoms: C_1  and  O_2
REMARK    2  A    between atoms: O_2  and  C_3
REMARK    3  A    between atoms: C_6  and  C_9
REMARK    4  A    between atoms: C_24  and  S_36
REMARK    5  A    between atoms: C_27  and  C_29
REMARK    6  A    between atoms: S_36  and  C_37
REMARK                            x       y       z     vdW  Elec       q    Type
REMARK                         _______ _______ _______ _____ _____    ______ ____
ROOT
ATOM      1  C   UNL     1      -4.981  -2.629   0.035  0.00  0.00    +0.234 C 
ATOM      2  C   UNL     1      -5.357  -2.963   1.449  0.00  0.00    +0.025 C 
ATOM      3  C   UNL     1      -4.988  -4.138   2.000  0.00  0.00    +0.058 C 
ATOM      4  C   UNL     1      -4.214  -5.078   1.150  0.00  0.00    +0.042 A 
ATOM      5  C   UNL     1      -3.517  -6.146   1.699  0.00  0.00    +0.033 A 
ATOM      6  C   UNL     1      -2.807  -6.996   0.871  0.00  0.00    +0.042 A 
ATOM      7  C   UNL     1      -2.792  -6.783  -0.498  0.00  0.00    +0.023 A 
ATOM      8  C   UNL     1      -3.485  -5.722  -1.051  0.00  0.00    +0.048 A 
ATOM      9  C   UNL     1      -4.200  -4.865  -0.234  0.00  0.00    +0.131 A 
ATOM     10  O   UNL     1      -4.893  -3.821  -0.748  0.00  0.00    -0.479 OA
ATOM     11 CL   UNL     1      -1.932  -8.333   1.549  0.00  0.00    -0.084 Cl
ATOM     12  N   UNL     1      -5.311  -4.455   3.277  0.00  0.00    -0.326 N 
ATOM     13  C   UNL     1      -6.003  -3.676   4.082  0.00  0.00    +0.216 C 
ATOM     14  N   UNL     1      -6.404  -3.840   5.356  0.00  0.00    -0.192 NA
ATOM     15  C   UNL     1      -7.084  -2.786   5.761  0.00  0.00    +0.174 C 
ATOM     16  N   UNL     1      -7.150  -1.876   4.738  0.00  0.00    -0.239 N 
ATOM     17  N   UNL     1      -6.458  -2.441   3.664  0.00  0.00    -0.209 N 
ATOM     18  C   UNL     1      -6.156  -1.998   2.297  0.00  0.00    +0.159 C 
ATOM     19  H   UNL     1      -5.013  -5.311   3.620  0.00  0.00    +0.169 HD
ATOM     20  H   UNL     1      -7.590  -1.012   4.756  0.00  0.00    +0.172 HD
ENDROOT
BRANCH  18  21
ATOM     21  C   UNL     1      -7.460  -1.723   1.594  0.00  0.00    -0.021 A 
ATOM     22  C   UNL     1      -8.500  -2.630   1.687  0.00  0.00    +0.008 A 
ATOM     23  C   UNL     1      -9.696  -2.379   1.042  0.00  0.00    +0.038 A 
ATOM     24  C   UNL     1      -9.854  -1.218   0.304  0.00  0.00    +0.123 A 
ATOM     25  C   UNL     1      -8.812  -0.311   0.212  0.00  0.00    +0.038 A 
ATOM     26  C   UNL     1      -7.618  -0.562   0.862  0.00  0.00    +0.008 A 
ATOM     27  F   UNL     1     -11.023  -0.971  -0.327  0.00  0.00    -0.205 F 
ENDBRANCH  18  21
BRANCH   1  31
ATOM     28  C   UNL     1      -1.200  -0.637   0.010  0.00  0.00    +0.120 A 
ATOM     29  C   UNL     1      -2.375   0.101   0.019  0.00  0.00    +0.046 A 
ATOM     30  C   UNL     1      -3.596  -0.545   0.027  0.00  0.00    +0.011 A 
ATOM     31  C   UNL     1      -3.648  -1.927   0.026  0.00  0.00    -0.003 A 
ATOM     32  C   UNL     1      -2.479  -2.665   0.017  0.00  0.00    +0.011 A 
ATOM     33  C   UNL     1      -1.255  -2.024   0.003  0.00  0.00    +0.046 A 
BRANCH  28  35
ATOM     34  C   UNL     1      -0.017   1.425   0.010  0.00  0.00    +0.277 C 
ATOM     35  O   UNL     1       0.002  -0.004   0.002  0.00  0.00    -0.495 OA
ENDBRANCH  28  35
ENDBRANCH   1  31
BRANCH  15  36
ATOM     36  S   UNL     1      -7.794  -2.580   7.360  0.00  0.00    -0.092 S 
ATOM     37  C   UNL     1      -7.361  -4.109   8.233  0.00  0.00    +0.093 C 
ENDBRANCH  15  36
TORSDOF 4
