REMARK  Name = ZINC20182842
REMARK  3 active torsions:
REMARK  status: ('A' for Active; 'I' for Inactive)
REMARK    1  A    between atoms: C_4  and  S_7
REMARK    2  A    between atoms: S_7  and  N_10
REMARK    3  A    between atoms: C_16  and  N_20
REMARK                            x       y       z     vdW  Elec       q    Type
REMARK                         _______ _______ _______ _____ _____    ______ ____
ROOT
ATOM      1  N   UNL     1       3.076   4.326  -1.587  0.00  0.00    -0.172 NA
ATOM      2  C   UNL     1       3.912   3.368  -2.329  0.00  0.00    +0.114 C 
ATOM      3  C   UNL     1       3.059   2.787  -3.462  0.00  0.00    +0.052 C 
ATOM      4  C   UNL     1       2.346   3.882  -4.211  0.00  0.00    -0.042 A 
ATOM      5  C   UNL     1       1.882   3.590  -5.489  0.00  0.00    +0.006 A 
ATOM      6  C   UNL     1       1.201   4.537  -6.223  0.00  0.00    +0.023 A 
ATOM      7  C   UNL     1       0.975   5.796  -5.682  0.00  0.00    +0.025 A 
ATOM      8  C   UNL     1       1.442   6.089  -4.410  0.00  0.00    +0.028 A 
ATOM      9  C   UNL     1       2.131   5.134  -3.677  0.00  0.00    -0.027 A 
ATOM     10  C   UNL     1       2.622   5.521  -2.305  0.00  0.00    +0.144 C 
ENDROOT
BRANCH   1  11
ATOM     11  S   UNL     1       2.670   4.067  -0.002  0.00  0.00    +0.061 S 
ATOM     12  O   UNL     1       2.387   5.342   0.558  0.00  0.00    -0.153 OA
ATOM     13  O   UNL     1       3.661   3.202   0.535  0.00  0.00    -0.153 OA
BRANCH  11  17
ATOM     14  C   UNL     1      -1.219   1.751   0.017  0.00  0.00    +0.000 A 
ATOM     15  C   UNL     1      -0.013   1.076   0.008  0.00  0.00    +0.002 A 
ATOM     16  C   UNL     1       1.175   1.783   0.000  0.00  0.00    +0.028 A 
ATOM     17  C   UNL     1       1.156   3.165   0.008  0.00  0.00    +0.105 A 
ATOM     18  C   UNL     1      -0.050   3.840   0.023  0.00  0.00    +0.028 A 
ATOM     19  C   UNL     1      -1.238   3.133   0.030  0.00  0.00    +0.002 A 
ENDBRANCH  11  17
ENDBRANCH   1  11
BRANCH   7  20
ATOM     20  N   UNL     1       0.282   6.762  -6.416  0.00  0.00    -0.358 N 
ATOM     21  H   UNL     1       0.104   7.758  -5.985  0.00  0.00    +0.142 HD
ATOM     22  H   UNL     1      -0.087   6.526  -7.425  0.00  0.00    +0.142 HD
ENDBRANCH   7  20
TORSDOF 3
