REMARK  Name = ZINC14475483
REMARK  7 active torsions:
REMARK  status: ('A' for Active; 'I' for Inactive)
REMARK    1  A    between atoms: C_1  and  C_2
REMARK    2  A    between atoms: C_2  and  O_3
REMARK    3  A    between atoms: O_3  and  C_4
REMARK    4  A    between atoms: C_4  and  C_5
REMARK    5  A    between atoms: C_5  and  O_6
REMARK    6  A    between atoms: O_6  and  C_7
REMARK    7  A    between atoms: C_14  and  C_23
REMARK                            x       y       z     vdW  Elec       q    Type
REMARK                         _______ _______ _______ _____ _____    ______ ____
ROOT
ATOM      1  C   UNL     1       0.372   5.048  -1.427  0.00  0.00    +0.142 A 
ATOM      2  C   UNL     1       1.585   5.713  -1.418  0.00  0.00    +0.047 A 
ATOM      3  C   UNL     1       2.717   5.068  -0.954  0.00  0.00    +0.004 A 
ATOM      4  C   UNL     1       2.636   3.767  -0.503  0.00  0.00    +0.006 A 
ATOM      5  C   UNL     1       1.422   3.089  -0.509  0.00  0.00    -0.016 A 
ATOM      6  C   UNL     1       0.290   3.729  -0.970  0.00  0.00    +0.074 A 
ATOM      7  N   UNL     1      -0.960   3.102  -0.999  0.00  0.00    -0.334 N 
ATOM      8  C   UNL     1      -0.823   1.634  -1.156  0.00  0.00    +0.105 C 
ATOM      9  C   UNL     1      -0.013   1.086   0.008  0.00  0.00    +0.029 C 
ATOM     10  C   UNL     1       1.414   1.670  -0.003  0.00  0.00    +0.049 C 
ATOM     11  C   UNL     1       1.790   1.695   1.470  0.00  0.00    -0.023 C 
ATOM     12  C   UNL     1       0.717   1.678   2.219  0.00  0.00    -0.030 C 
ATOM     13  C   UNL     1      -0.532   1.639   1.358  0.00  0.00    +0.033 C 
ATOM     14  H   UNL     1      -1.541   3.487  -1.728  0.00  0.00    +0.147 HD
ENDROOT
BRANCH   8  15
ATOM     15  C   UNL     1      -2.185   0.988  -1.166  0.00  0.00    -0.026 A 
ATOM     16  C   UNL     1      -3.170   1.449  -0.294  0.00  0.00    +0.006 A 
ATOM     17  C   UNL     1      -4.411   0.891  -0.281  0.00  0.00    +0.009 A 
ATOM     18  C   UNL     1      -4.704  -0.173  -1.150  0.00  0.00    -0.018 A 
ATOM     19  C   UNL     1      -5.973  -0.778  -1.162  0.00  0.00    +0.008 A 
ATOM     20  C   UNL     1      -6.220  -1.807  -2.018  0.00  0.00    +0.001 A 
ATOM     21  C   UNL     1      -5.234  -2.272  -2.885  0.00  0.00    +0.001 A 
ATOM     22  C   UNL     1      -3.994  -1.711  -2.902  0.00  0.00    +0.008 A 
ATOM     23  C   UNL     1      -3.701  -0.646  -2.033  0.00  0.00    -0.018 A 
ATOM     24  C   UNL     1      -2.432  -0.041  -2.022  0.00  0.00    +0.014 A 
ENDBRANCH   8  15
BRANCH   1  25
ATOM     25  O   UNL     1      -0.744   5.679  -1.881  0.00  0.00    -0.488 OA
BRANCH  25  26
ATOM     26  C   UNL     1      -0.588   7.025  -2.334  0.00  0.00    +0.257 C 
BRANCH  26  27
ATOM     27  C   UNL     1      -1.941   7.564  -2.804  0.00  0.00    +0.200 C 
BRANCH  27  28
ATOM     28  O   UNL     1      -2.836   7.640  -1.693  0.00  0.00    -0.377 OA
BRANCH  28  30
ATOM     29  C   UNL     1      -5.004   8.172  -0.767  0.00  0.00    +0.034 C 
ATOM     30  C   UNL     1      -4.135   8.134  -2.026  0.00  0.00    +0.156 C 
ENDBRANCH  28  30
ENDBRANCH  27  28
ENDBRANCH  26  27
ENDBRANCH  25  26
ENDBRANCH   1  25
TORSDOF 6
