REMARK  Name = ZINC23855000
REMARK  10 active torsions:
REMARK  status: ('A' for Active; 'I' for Inactive)
REMARK    1  A    between atoms: C_1  and  C_2
REMARK    2  A    between atoms: C_2  and  C_3
REMARK    3  A    between atoms: C_2  and  C_4
REMARK    4  A    between atoms: C_2  and  C_5
REMARK    5  A    between atoms: C_7  and  C_13
REMARK    6  A    between atoms: C_8  and  O_12
REMARK    7  A    between atoms: C_9  and  O_11
REMARK    8  A    between atoms: C_13  and  N_14
REMARK    9  A    between atoms: N_17  and  C_20
REMARK   10  A    between atoms: C_20  and  C_21
REMARK                            x       y       z     vdW  Elec       q    Type
REMARK                         _______ _______ _______ _____ _____    ______ ____
ROOT
ATOM      1  N   UNL     1      -1.327  -2.784  -3.105  0.00  0.00    +0.384 N 
ATOM      2  C   UNL     1      -2.292  -3.522  -2.279  0.00  0.00    -0.063 C 
ATOM      3  C   UNL     1      -3.691  -3.381  -2.884  0.00  0.00    +0.066 C 
ATOM      4  N   UNL     1      -3.680  -3.894  -4.261  0.00  0.00    -0.302 NA
ATOM      5  C   UNL     1      -2.715  -3.155  -5.088  0.00  0.00    +0.066 C 
ATOM      6  C   UNL     1      -1.316  -3.296  -4.482  0.00  0.00    -0.063 C 
ATOM      7  H   UNL     1      -1.643  -1.730  -3.137  0.00  0.00    -0.081 HD
ENDROOT
BRANCH   1   8
ATOM      8  C   UNL     1       0.017  -2.832  -2.515  0.00  0.00    -0.039 C 
BRANCH   8  11
ATOM      9  C   UNL     1       0.042  -2.087   1.188  0.00  0.00    -0.038 A 
ATOM     10  C   UNL     1       0.040  -2.773  -0.012  0.00  0.00    +0.009 A 
ATOM     11  C   UNL     1       0.019  -2.080  -1.208  0.00  0.00    -0.019 A 
ATOM     12  C   UNL     1      -0.006  -0.695  -1.206  0.00  0.00    +0.160 A 
ATOM     13  C   UNL     1       0.002  -0.004   0.002  0.00  0.00    +0.159 A 
ATOM     14  C   UNL     1       0.023  -0.705   1.197  0.00  0.00    +0.053 A 
BRANCH   9  16
ATOM     15  C   UNL     1       0.063  -1.860   3.657  0.00  0.00    +0.015 C 
ATOM     16  C   UNL     1       0.065  -2.848   2.489  0.00  0.00    -0.013 C 
ATOM     17  C   UNL     1      -1.171  -3.744   2.577  0.00  0.00    +0.015 C 
ATOM     18  C   UNL     1       1.327  -3.710   2.553  0.00  0.00    +0.015 C 
ENDBRANCH   9  16
BRANCH  13  19
ATOM     19  O   UNL     1      -0.016   1.356   0.009  0.00  0.00    -0.503 OA
ATOM     20  H   UNL     1      -0.010   1.901   0.965  0.00  0.00    +0.292 HD
ENDBRANCH  13  19
BRANCH  12  21
ATOM     21  O   UNL     1      -0.032  -0.012  -2.381  0.00  0.00    -0.503 OA
ATOM     22  H   UNL     1      -0.051   1.088  -2.378  0.00  0.00    +0.292 HD
ENDBRANCH  12  21
ENDBRANCH   8  11
ENDBRANCH   1   8
BRANCH   4  23
ATOM     23  C   UNL     1      -5.024  -3.846  -4.852  0.00  0.00    +0.119 C 
BRANCH  23  24
ATOM     24  C   UNL     1      -6.025  -4.395  -3.868  0.00  0.00    -0.033 A 
ATOM     25  C   UNL     1      -6.332  -5.743  -3.869  0.00  0.00    +0.008 A 
ATOM     26  C   UNL     1      -7.246  -6.251  -2.970  0.00  0.00    +0.046 A 
ATOM     27  C   UNL     1      -7.878  -5.407  -2.060  0.00  0.00    +0.124 A 
ATOM     28  C   UNL     1      -7.561  -4.055  -2.067  0.00  0.00    -0.002 A 
ATOM     29  C   UNL     1      -6.645  -3.550  -2.964  0.00  0.00    +0.012 A 
ATOM     30  C   UNL     1      -8.380  -3.400  -0.972  0.00  0.00    +0.080 C 
ATOM     31  C   UNL     1      -8.844  -4.623  -0.146  0.00  0.00    +0.234 C 
ATOM     32  O   UNL     1      -8.811  -5.689  -1.110  0.00  0.00    -0.491 OA
ENDBRANCH  23  24
ENDBRANCH   4  23
TORSDOF 7
