REMARK  Name = ZINC40804285
REMARK  5 active torsions:
REMARK  status: ('A' for Active; 'I' for Inactive)
REMARK    1  A    between atoms: C_1  and  C_2
REMARK    2  A    between atoms: C_2  and  C_3
REMARK    3  A    between atoms: C_2  and  C_4
REMARK    4  A    between atoms: C_10  and  C_12
REMARK    5  A    between atoms: C_12  and  C_23
REMARK                            x       y       z     vdW  Elec       q    Type
REMARK                         _______ _______ _______ _____ _____    ______ ____
ROOT
ATOM      1  C   UNL     1      -7.267  -2.920  -0.332  0.00  0.00    +0.170 C 
ATOM      2  C   UNL     1      -8.185  -3.015   0.858  0.00  0.00    +0.242 C 
ATOM      3  O   UNL     1      -8.037  -2.224   1.766  0.00  0.00    -0.273 OA
ATOM      4  N   UNL     1      -9.149  -3.924   0.963  0.00  0.00    -0.283 N 
ATOM      5  C   UNL     1      -9.396  -4.978   0.088  0.00  0.00    +0.047 A 
ATOM      6  C   UNL     1     -10.626  -5.626   0.136  0.00  0.00    +0.024 A 
ATOM      7  C   UNL     1     -10.898  -6.668  -0.728  0.00  0.00    +0.002 A 
ATOM      8  C   UNL     1      -9.953  -7.079  -1.650  0.00  0.00    +0.001 A 
ATOM      9  C   UNL     1      -8.725  -6.447  -1.707  0.00  0.00    +0.016 A 
ATOM     10  C   UNL     1      -8.445  -5.404  -0.839  0.00  0.00    +0.031 A 
ATOM     11  S   UNL     1      -6.871  -4.605  -0.891  0.00  0.00    -0.098 S 
ATOM     12  C   UNL     1      -7.959  -2.153  -1.461  0.00  0.00    +0.043 C 
ATOM     13  H   UNL     1      -9.742  -3.844   1.727  0.00  0.00    +0.155 HD
ENDROOT
BRANCH   1  20
ATOM     14  C   UNL     1      -1.412  -0.526   0.013  0.00  0.00    +0.106 A 
ATOM     15  N   UNL     1      -2.373  -0.344   0.896  0.00  0.00    -0.144 NA
ATOM     16  N   UNL     1      -3.498  -0.884   0.699  0.00  0.00    -0.126 NA
ATOM     17  C   UNL     1      -3.740  -1.625  -0.364  0.00  0.00    +0.188 A 
ATOM     18  S   UNL     1      -2.261  -1.559  -1.172  0.00  0.00    -0.035 S 
ATOM     19  N   UNL     1      -4.909  -2.283  -0.728  0.00  0.00    -0.262 N 
ATOM     20  C   UNL     1      -5.999  -2.206   0.061  0.00  0.00    +0.244 C 
ATOM     21  O   UNL     1      -5.960  -1.562   1.089  0.00  0.00    -0.273 OA
ATOM     22  H   UNL     1      -4.941  -2.798  -1.549  0.00  0.00    +0.157 HD
BRANCH  14  24
ATOM     23  C   UNL     1      -0.019   1.526   0.010  0.00  0.00    +0.014 C 
ATOM     24  C   UNL     1       0.002  -0.004   0.002  0.00  0.00    +0.040 C 
ATOM     25  C   UNL     1       0.742  -0.511   1.242  0.00  0.00    +0.014 C 
ENDBRANCH  14  24
ENDBRANCH   1  20
TORSDOF 2
