REMARK  Name = ZINC39945009
REMARK  6 active torsions:
REMARK  status: ('A' for Active; 'I' for Inactive)
REMARK    1  A    between atoms: C_3  and  C_9
REMARK    2  A    between atoms: C_11  and  S_15
REMARK    3  A    between atoms: S_15  and  C_16
REMARK    4  A    between atoms: C_16  and  C_17
REMARK    5  A    between atoms: N_19  and  C_20
REMARK    6  A    between atoms: C_22  and  C_31
REMARK                            x       y       z     vdW  Elec       q    Type
REMARK                         _______ _______ _______ _____ _____    ______ ____
ROOT
ATOM      1  C   UNL     1       9.214   0.219  -0.108  0.00  0.00    +0.224 C 
ATOM      2  O   UNL     1      10.040   1.108  -0.110  0.00  0.00    -0.275 OA
ATOM      3  N   UNL     1       9.611  -1.069  -0.126  0.00  0.00    -0.302 N 
ATOM      4  H   UNL     1       8.951  -1.780  -0.124  0.00  0.00    +0.150 HD
ENDROOT
BRANCH   3   5
ATOM      5  C   UNL     1      11.039  -1.395  -0.146  0.00  0.00    +0.151 C 
ATOM      6  C   UNL     1      11.360  -2.599   0.772  0.00  0.00    +0.132 C 
ATOM      7  C   UNL     1      11.322  -3.902   0.013  0.00  0.00    -0.046 C 
ATOM      8  C   UNL     1      11.416  -3.846  -1.310  0.00  0.00    -0.013 C 
ATOM      9  S   UNL     1      11.542  -2.129  -1.759  0.00  0.00    -0.106 S 
ATOM     10  C   UNL     1      11.415  -5.006  -2.267  0.00  0.00    +0.042 C 
ATOM     11  C   UNL     1      11.656  -6.298  -1.477  0.00  0.00    +0.005 C 
ATOM     12  C   UNL     1      10.725  -6.304  -0.260  0.00  0.00    +0.005 C 
ATOM     13  C   UNL     1      11.184  -5.240   0.737  0.00  0.00    +0.032 C 
BRANCH   6  14
ATOM     14  C   UNL     1      12.735  -2.416   1.362  0.00  0.00    +0.220 C 
ATOM     15  O   UNL     1      13.607  -3.225   1.129  0.00  0.00    -0.275 OA
ATOM     16  N   UNL     1      12.994  -1.353   2.148  0.00  0.00    -0.329 N 
ATOM     17  H   UNL     1      12.296  -0.705   2.334  0.00  0.00    +0.145 HD
ATOM     18  H   UNL     1      13.878  -1.234   2.528  0.00  0.00    +0.145 HD
ENDBRANCH   6  14
ENDBRANCH   3   5
BRANCH   1  19
ATOM     19  C   UNL     1       7.745   0.555  -0.087  0.00  0.00    +0.173 C 
BRANCH  19  20
ATOM     20  S   UNL     1       7.537   2.357  -0.067  0.00  0.00    -0.077 S 
BRANCH  20  23
ATOM     21  C   UNL     1       3.659   2.167  -0.022  0.00  0.00    +0.184 A 
ATOM     22  N   UNL     1       4.887   1.628  -0.042  0.00  0.00    -0.201 NA
ATOM     23  C   UNL     1       5.790   2.583  -0.044  0.00  0.00    +0.185 A 
ATOM     24  N   UNL     1       5.144   3.770  -0.025  0.00  0.00    -0.253 N 
ATOM     25  H   UNL     1       5.548   4.652  -0.022  0.00  0.00    +0.191 HD
ATOM     26  N   UNL     1       3.771   3.477  -0.017  0.00  0.00    -0.152 NA
BRANCH  21  29
ATOM     27  C   UNL     1      -0.017   1.380   0.010  0.00  0.00    +0.021 A 
ATOM     28  C   UNL     1       1.167   2.089   0.002  0.00  0.00    +0.014 A 
ATOM     29  C   UNL     1       2.384   1.410  -0.013  0.00  0.00    +0.039 A 
ATOM     30  C   UNL     1       2.398   0.015  -0.021  0.00  0.00    +0.053 A 
ATOM     31  C   UNL     1       1.207  -0.685  -0.013  0.00  0.00    +0.040 A 
ATOM     32  C   UNL     1       0.002  -0.004   0.002  0.00  0.00    +0.042 A 
ATOM     33 CL   UNL     1      -1.491  -0.889   0.011  0.00  0.00    -0.083 Cl
ATOM     34 CL   UNL     1       3.909  -0.839  -0.040  0.00  0.00    -0.083 Cl
ENDBRANCH  21  29
ENDBRANCH  20  23
ENDBRANCH  19  20
ENDBRANCH   1  19
TORSDOF 6
