REMARK  Name = ZINC40269913
REMARK  3 active torsions:
REMARK  status: ('A' for Active; 'I' for Inactive)
REMARK    1  A    between atoms: C_1  and  C_2
REMARK    2  A    between atoms: C_7  and  C_8
REMARK    3  A    between atoms: C_8  and  C_10
REMARK                            x       y       z     vdW  Elec       q    Type
REMARK                         _______ _______ _______ _____ _____    ______ ____
ROOT
ATOM      1  C   UNL     1       1.154   0.580   2.888  0.00  0.00    -0.023 A 
ATOM      2  C   UNL     1       1.664   1.648   2.170  0.00  0.00    +0.007 A 
ATOM      3  C   UNL     1       2.892   2.184   2.499  0.00  0.00    +0.028 A 
ATOM      4  C   UNL     1       3.623   1.652   3.556  0.00  0.00    +0.066 A 
ATOM      5  C   UNL     1       3.109   0.575   4.280  0.00  0.00    +0.066 A 
ATOM      6  C   UNL     1       1.867   0.047   3.942  0.00  0.00    +0.033 A 
ATOM      7  N   UNL     1       3.825   0.028   5.341  0.00  0.00    -0.316 N 
ATOM      8  H   UNL     1       3.459  -0.720   5.837  0.00  0.00    +0.169 HD
ATOM      9  C   UNL     1       5.027   0.537   5.678  0.00  0.00    +0.314 A 
ATOM     10  O   UNL     1       5.657   0.063   6.603  0.00  0.00    -0.262 OA
ATOM     11  C   UNL     1       5.577   1.688   4.905  0.00  0.00    +0.314 A 
ATOM     12  O   UNL     1       6.658   2.161   5.193  0.00  0.00    -0.262 OA
ATOM     13  N   UNL     1       4.861   2.198   3.882  0.00  0.00    -0.316 N 
ATOM     14  H   UNL     1       5.210   2.946   3.372  0.00  0.00    +0.169 HD
ENDROOT
BRANCH   1  15
ATOM     15  C   UNL     1      -0.188   0.000   2.521  0.00  0.00    +0.141 C 
ATOM     16 CL   UNL     1      -1.429   1.309   2.524  0.00  0.00    -0.112 Cl
BRANCH  15  23
ATOM     17  C   UNL     1       0.688  -2.736   2.211  0.00  0.00    +0.044 C 
ATOM     18  C   UNL     1       0.309  -1.924   0.999  0.00  0.00    -0.046 A 
ATOM     19  C   UNL     1       0.374  -2.491  -0.260  0.00  0.00    +0.004 A 
ATOM     20  C   UNL     1       0.026  -1.746  -1.372  0.00  0.00    +0.000 A 
ATOM     21  C   UNL     1      -0.388  -0.435  -1.224  0.00  0.00    +0.000 A 
ATOM     22  C   UNL     1      -0.454   0.131   0.035  0.00  0.00    +0.005 A 
ATOM     23  C   UNL     1      -0.110  -0.615   1.147  0.00  0.00    -0.023 A 
ENDBRANCH  15  23
ENDBRANCH   1  15
TORSDOF 2
