REMARK  Name = ZINC12975742
REMARK  8 active torsions:
REMARK  status: ('A' for Active; 'I' for Inactive)
REMARK    1  A    between atoms: C_1  and  C_2
REMARK    2  A    between atoms: C_2  and  C_3
REMARK    3  A    between atoms: C_3  and  N_4
REMARK    4  A    between atoms: N_4  and  C_5
REMARK    5  A    between atoms: N_4  and  C_17
REMARK    6  A    between atoms: C_5  and  C_6
REMARK    7  A    between atoms: C_17  and  C_18
REMARK    8  A    between atoms: N_20  and  C_21
REMARK                            x       y       z     vdW  Elec       q    Type
REMARK                         _______ _______ _______ _____ _____    ______ ____
ROOT
ATOM      1  N   UNL     1       0.625  -3.238   1.430  0.00  0.00    +0.390 N 
ATOM      2  H   UNL     1      -0.149  -3.870   1.290  0.00  0.00    -0.081 HD
ENDROOT
BRANCH   1   3
ATOM      3  C   UNL     1       0.122  -1.949   1.923  0.00  0.00    -0.078 C 
BRANCH   3   5
ATOM      4  C   UNL     1      -1.554  -0.138   1.535  0.00  0.00    +0.002 C 
ATOM      5  C   UNL     1      -0.923  -1.403   0.949  0.00  0.00    -0.022 C 
ENDBRANCH   3   5
ENDBRANCH   1   3
BRANCH   1   6
ATOM      6  C   UNL     1       1.327  -3.034   0.155  0.00  0.00    -0.003 C 
BRANCH   6   7
ATOM      7  C   UNL     1       1.668  -4.371  -0.450  0.00  0.00    +0.094 A 
ATOM      8  N   UNL     1       2.453  -4.397  -1.559  0.00  0.00    -0.311 N 
ATOM      9  H   UNL     1       2.781  -3.571  -1.946  0.00  0.00    +0.170 HD
ATOM     10  C   UNL     1       2.771  -5.589  -2.120  0.00  0.00    +0.266 A 
ATOM     11  O   UNL     1       3.473  -5.646  -3.115  0.00  0.00    -0.267 OA
ATOM     12  C   UNL     1       2.275  -6.749  -1.525  0.00  0.00    +0.102 A 
ATOM     13  C   UNL     1       1.465  -6.695  -0.377  0.00  0.00    +0.085 A 
ATOM     14  N   UNL     1       1.204  -5.439   0.116  0.00  0.00    -0.235 NA
ATOM     15  C   UNL     1       1.034  -7.933   0.117  0.00  0.00    +0.036 A 
ATOM     16  C   UNL     1       1.399  -9.076  -0.503  0.00  0.00    +0.048 A 
ATOM     17  S   UNL     1       2.398  -8.486  -1.860  0.00  0.00    -0.090 S 
ENDBRANCH   6   7
ENDBRANCH   1   6
BRANCH   1  18
ATOM     18  C   UNL     1       1.554  -3.811   2.413  0.00  0.00    +0.019 C 
BRANCH  18  19
ATOM     19  C   UNL     1       0.806  -4.134   3.681  0.00  0.00    +0.201 C 
ATOM     20  O   UNL     1      -0.384  -3.909   3.758  0.00  0.00    -0.278 OA
ATOM     21  N   UNL     1       1.458  -4.673   4.730  0.00  0.00    -0.286 N 
ATOM     22  H   UNL     1       2.422  -4.781   4.698  0.00  0.00    +0.155 HD
BRANCH  21  23
ATOM     23  C   UNL     1       0.746  -5.076   5.865  0.00  0.00    +0.053 A 
ATOM     24  C   UNL     1      -0.605  -5.382   5.767  0.00  0.00    +0.044 A 
ATOM     25  C   UNL     1      -1.305  -5.780   6.890  0.00  0.00    +0.043 A 
ATOM     26  C   UNL     1      -0.662  -5.875   8.112  0.00  0.00    +0.021 A 
ATOM     27  C   UNL     1       0.683  -5.571   8.213  0.00  0.00    +0.023 A 
ATOM     28  C   UNL     1       1.391  -5.177   7.092  0.00  0.00    +0.062 A 
ATOM     29 CL   UNL     1       3.081  -4.802   7.219  0.00  0.00    -0.082 Cl
ATOM     30 CL   UNL     1      -2.994  -6.162   6.768  0.00  0.00    -0.083 Cl
ENDBRANCH  21  23
ENDBRANCH  18  19
ENDBRANCH   1  18
TORSDOF 7
