REMARK  Name = ZINC08882121
REMARK  10 active torsions:
REMARK  status: ('A' for Active; 'I' for Inactive)
REMARK    1  A    between atoms: C_1  and  C_2
REMARK    2  A    between atoms: C_2  and  C_27
REMARK    3  A    between atoms: N_5  and  C_9
REMARK    4  A    between atoms: C_9  and  C_10
REMARK    5  A    between atoms: N_12  and  C_13
REMARK    6  A    between atoms: C_13  and  C_15
REMARK    7  A    between atoms: C_13  and  C_22
REMARK    8  A    between atoms: C_27  and  C_28
REMARK    9  A    between atoms: C_33  and  O_34
REMARK   10  A    between atoms: O_34  and  C_35
REMARK                            x       y       z     vdW  Elec       q    Type
REMARK                         _______ _______ _______ _____ _____    ______ ____
ROOT
ATOM      1  C   UNL     1      -1.587   5.898   7.844  0.00  0.00    +0.042 C 
ATOM      2  C   UNL     1      -2.243   5.119   6.703  0.00  0.00    +0.114 C 
ATOM      3  C   UNL     1      -1.461   5.298   5.417  0.00  0.00    +0.247 C 
ATOM      4  O   UNL     1      -0.311   4.977   5.208  0.00  0.00    -0.273 OA
ATOM      5  N   UNL     1      -2.310   5.889   4.553  0.00  0.00    -0.215 N 
ATOM      6  C   UNL     1      -3.506   6.110   5.110  0.00  0.00    +0.310 C 
ATOM      7  O   UNL     1      -4.436   6.635   4.529  0.00  0.00    -0.252 OA
ATOM      8  N   UNL     1      -3.567   5.683   6.384  0.00  0.00    -0.285 N 
ATOM      9  H   UNL     1      -4.331   5.738   6.979  0.00  0.00    +0.151 HD
ENDROOT
BRANCH   5  10
ATOM     10  C   UNL     1      -1.965   6.249   3.175  0.00  0.00    +0.213 C 
BRANCH  10  11
ATOM     11  C   UNL     1      -2.283   5.096   2.259  0.00  0.00    +0.232 C 
ATOM     12  O   UNL     1      -2.752   4.073   2.712  0.00  0.00    -0.274 OA
ATOM     13  N   UNL     1      -2.046   5.201   0.937  0.00  0.00    -0.303 N 
ATOM     14  H   UNL     1      -1.671   6.019   0.575  0.00  0.00    +0.150 HD
BRANCH  13  15
ATOM     15  C   UNL     1      -2.355   4.080   0.046  0.00  0.00    +0.140 C 
BRANCH  15  16
ATOM     16  C   UNL     1      -2.596   4.598  -1.349  0.00  0.00    -0.022 A 
ATOM     17  C   UNL     1      -1.808   5.615  -1.853  0.00  0.00    +0.008 A 
ATOM     18  C   UNL     1      -2.026   6.088  -3.134  0.00  0.00    +0.038 A 
ATOM     19  C   UNL     1      -3.040   5.549  -3.907  0.00  0.00    +0.123 A 
ATOM     20  C   UNL     1      -3.832   4.533  -3.399  0.00  0.00    +0.038 A 
ATOM     21  C   UNL     1      -3.609   4.059  -2.120  0.00  0.00    +0.008 A 
ATOM     22  F   UNL     1      -3.256   6.013  -5.157  0.00  0.00    -0.205 F 
ENDBRANCH  15  16
BRANCH  15  23
ATOM     23  C   UNL     1      -1.196   3.116   0.030  0.00  0.00    +0.014 A 
ATOM     24  C   UNL     1      -1.213   1.761   0.017  0.00  0.00    +0.013 A 
ATOM     25  C   UNL     1      -0.013   1.076   0.008  0.00  0.00    +0.008 A 
ATOM     26  C   UNL     1       1.146   1.780   0.001  0.00  0.00    +0.045 A 
ATOM     27  S   UNL     1       0.555   3.464   0.015  0.00  0.00    -0.099 S 
ENDBRANCH  15  23
ENDBRANCH  13  15
ENDBRANCH  10  11
ENDBRANCH   5  10
BRANCH   2  28
ATOM     28  C   UNL     1      -2.361   3.636   7.059  0.00  0.00    +0.073 C 
BRANCH  28  29
ATOM     29  C   UNL     1      -3.244   3.479   8.270  0.00  0.00    -0.003 A 
ATOM     30  C   UNL     1      -2.682   3.398   9.530  0.00  0.00    +0.007 A 
ATOM     31  C   UNL     1      -3.492   3.254  10.641  0.00  0.00    +0.000 A 
ATOM     32  C   UNL     1      -4.865   3.191  10.495  0.00  0.00    +0.004 A 
ATOM     33  C   UNL     1      -5.432   3.273   9.238  0.00  0.00    +0.046 A 
ATOM     34  C   UNL     1      -4.622   3.422   8.122  0.00  0.00    +0.123 A 
BRANCH  34  35
ATOM     35  O   UNL     1      -5.178   3.507   6.884  0.00  0.00    -0.495 OA
ATOM     36  C   UNL     1      -6.603   3.441   6.807  0.00  0.00    +0.277 C 
ENDBRANCH  34  35
ENDBRANCH  28  29
ENDBRANCH   2  28
TORSDOF 8
