REMARK  Name = ZINC02871540
REMARK  10 active torsions:
REMARK  status: ('A' for Active; 'I' for Inactive)
REMARK    1  A    between atoms: C_2  and  C_3
REMARK    2  A    between atoms: C_3  and  N_4
REMARK    3  A    between atoms: C_5  and  CA_23
REMARK    4  A    between atoms: C_8  and  S_9
REMARK    5  A    between atoms: S_9  and  C_10
REMARK    6  A    between atoms: C_10  and  C_11
REMARK    7  A    between atoms: CA_23  and  C_25
REMARK    8  A    between atoms: CA_23  and  N_27
REMARK    9  A    between atoms: C_25  and  O_26
REMARK   10  A    between atoms: C_28  and  C_30
REMARK                            x       y       z     vdW  Elec       q    Type
REMARK                         _______ _______ _______ _____ _____    ______ ____
ROOT
ATOM      1  N   UNL     1      -0.063   1.115  -4.071  0.00  0.00    -0.301 N 
ATOM      2  C   UNL     1       0.958   0.414  -4.651  0.00  0.00    +0.157 A 
ATOM      3  N   UNL     1       1.684  -0.082  -3.689  0.00  0.00    -0.131 NA
ATOM      4  N   UNL     1       1.198   0.258  -2.549  0.00  0.00    -0.122 NA
ATOM      5  C   UNL     1       0.122   0.990  -2.724  0.00  0.00    +0.192 A 
ENDROOT
BRANCH   1   6
ATOM      6  C   UNL     1      -1.132   1.848  -4.752  0.00  0.00    +0.152 C 
BRANCH   6   8
ATOM      7  C   UNL     1      -0.720   3.773  -6.197  0.00  0.00    +0.005 C 
ATOM      8  C   UNL     1      -0.695   3.271  -4.987  0.00  0.00    -0.013 C 
ENDBRANCH   6   8
ENDBRANCH   1   6
BRANCH   5   9
ATOM      9  S   UNL     1      -0.888   1.685  -1.458  0.00  0.00    -0.077 S 
BRANCH   9  10
ATOM     10  C   UNL     1      -0.013   1.086   0.008  0.00  0.00    +0.173 C 
BRANCH  10  11
ATOM     11  C   UNL     1      -0.718   1.572   1.248  0.00  0.00    +0.229 C 
ATOM     12  O   UNL     1      -1.714   2.256   1.150  0.00  0.00    -0.275 OA
ATOM     13  N   UNL     1      -0.242   1.246   2.466  0.00  0.00    -0.264 N 
ATOM     14  C   UNL     1      -0.890   1.693   3.606  0.00  0.00    +0.165 A 
ATOM     15  N   UNL     1      -0.582   1.482   4.864  0.00  0.00    -0.225 NA
ATOM     16  C   UNL     1      -1.311   1.985   5.884  0.00  0.00    +0.080 A 
ATOM     17  C   UNL     1      -1.089   1.835   7.272  0.00  0.00    +0.029 A 
ATOM     18  C   UNL     1      -1.933   2.417   8.183  0.00  0.00    +0.002 A 
ATOM     19  C   UNL     1      -3.027   3.168   7.780  0.00  0.00    +0.001 A 
ATOM     20  C   UNL     1      -3.274   3.335   6.430  0.00  0.00    +0.017 A 
ATOM     21  C   UNL     1      -2.435   2.757   5.511  0.00  0.00    +0.041 A 
ATOM     22  S   UNL     1      -2.355   2.709   3.737  0.00  0.00    -0.052 S 
ATOM     23  H   UNL     1       0.555   0.699   2.544  0.00  0.00    +0.157 HD
ENDBRANCH  10  11
ENDBRANCH   9  10
ENDBRANCH   5   9
BRANCH   2  24
ATOM     24  CA  UNL     1       1.199   0.247  -6.129  0.00  0.00    +0.167 C 
BRANCH  24  25
ATOM     25  N   UNL     1       2.620   0.457  -6.419  0.00  0.00    -0.299 N 
ATOM     26  C   UNL     1       3.006   0.857  -7.647  0.00  0.00    +0.245 C 
ATOM     27  O   UNL     1       2.174   1.043  -8.514  0.00  0.00    -0.270 OA
ATOM     28  H   UNL     1       3.283   0.308  -5.727  0.00  0.00    +0.150 HD
BRANCH  26  29
ATOM     29  C   UNL     1       4.439   1.068  -7.939  0.00  0.00    +0.037 A 
ATOM     30  C   UNL     1       5.396   0.860  -6.944  0.00  0.00    +0.013 A 
ATOM     31  C   UNL     1       6.732   1.054  -7.225  0.00  0.00    +0.001 A 
ATOM     32  C   UNL     1       7.125   1.464  -8.487  0.00  0.00    +0.000 A 
ATOM     33  C   UNL     1       6.181   1.678  -9.476  0.00  0.00    +0.001 A 
ATOM     34  C   UNL     1       4.842   1.482  -9.210  0.00  0.00    +0.013 A 
ENDBRANCH  26  29
ENDBRANCH  24  25
BRANCH  24  35
ATOM     35  C   UNL     1       0.795  -1.165  -6.556  0.00  0.00    +0.186 C 
BRANCH  35  36
ATOM     36  O   UNL     1       1.489  -2.122  -5.753  0.00  0.00    -0.393 OA
ATOM     37  H   UNL     1       1.281  -3.042  -5.969  0.00  0.00    +0.209 HD
ENDBRANCH  35  36
ENDBRANCH  24  35
ENDBRANCH   2  24
TORSDOF 10
