REMARK  Name = ZINC23542107
REMARK  8 active torsions:
REMARK  status: ('A' for Active; 'I' for Inactive)
REMARK    1  A    between atoms: C_1  and  C_2
REMARK    2  A    between atoms: C_4  and  C_7
REMARK    3  A    between atoms: C_7  and  N_8
REMARK    4  A    between atoms: C_9  and  C_11
REMARK    5  A    between atoms: C_11  and  C_12
REMARK    6  A    between atoms: N_19  and  C_20
REMARK    7  A    between atoms: C_20  and  C_21
REMARK    8  A    between atoms: C_24  and  C_27
REMARK                            x       y       z     vdW  Elec       q    Type
REMARK                         _______ _______ _______ _____ _____    ______ ____
ROOT
ATOM      1  C   UNL     1       0.283  11.744   1.608  0.00  0.00    +0.028 C 
ATOM      2  C   UNL     1       0.562  12.598   2.812  0.00  0.00    +0.200 C 
ATOM      3  O   UNL     1       0.530  13.804   2.689  0.00  0.00    -0.278 OA
ATOM      4  N   UNL     1       0.844  12.084   4.014  0.00  0.00    -0.318 N 
ATOM      5  C   UNL     1       0.871  10.648   4.277  0.00  0.00    +0.085 C 
ATOM      6  C   UNL     1       0.990   9.877   2.961  0.00  0.00    -0.058 C 
ATOM      7  N   UNL     1      -0.035  10.373   2.028  0.00  0.00    +0.391 N 
ATOM      8  H   UNL     1       1.060  12.796   4.825  0.00  0.00    +0.149 HD
ATOM      9  H   UNL     1      -1.005  10.384   2.546  0.00  0.00    -0.080 HD
ENDROOT
BRANCH   1  10
ATOM     10  C   UNL     1      -0.902  12.326   0.836  0.00  0.00    +0.089 C 
BRANCH  10  12
ATOM     11  N   UNL     1      -3.282  12.844   1.268  0.00  0.00    -0.310 N 
ATOM     12  C   UNL     1      -2.136  12.281   1.700  0.00  0.00    +0.212 C 
ATOM     13  O   UNL     1      -2.097  11.738   2.784  0.00  0.00    -0.276 OA
ATOM     14  H   UNL     1      -3.316  13.337   0.285  0.00  0.00    +0.149 HD
BRANCH  11  15
ATOM     15  C   UNL     1      -4.481  12.801   2.108  0.00  0.00    +0.160 C 
BRANCH  15  19
ATOM     16  C   UNL     1      -7.076  16.890   0.856  0.00  0.00    +0.073 C 
ATOM     17  C   UNL     1      -6.749  15.419   0.874  0.00  0.00    +0.076 A 
ATOM     18  N   UNL     1      -5.768  14.800   1.490  0.00  0.00    -0.248 NA
ATOM     19  C   UNL     1      -5.616  13.495   1.401  0.00  0.00    +0.066 A 
ATOM     20  C   UNL     1      -6.509  12.791   0.660  0.00  0.00    +0.071 A 
ATOM     21  S   UNL     1      -7.575  14.107   0.092  0.00  0.00    -0.080 S 
ENDBRANCH  15  19
ENDBRANCH  11  15
ENDBRANCH  10  12
ENDBRANCH   1  10
BRANCH   7  22
ATOM     22  C   UNL     1      -0.163   9.483   0.866  0.00  0.00    -0.042 C 
BRANCH  22  23
ATOM     23  C   UNL     1      -0.393   8.070   1.338  0.00  0.00    -0.064 A 
ATOM     24  C   UNL     1      -1.682   7.612   1.541  0.00  0.00    +0.002 A 
ATOM     25  C   UNL     1      -1.898   6.320   1.973  0.00  0.00    +0.009 A 
ATOM     26  C   UNL     1      -0.814   5.475   2.205  0.00  0.00    -0.018 A 
ATOM     27  C   UNL     1       0.482   5.943   2.004  0.00  0.00    +0.009 A 
ATOM     28  C   UNL     1       0.687   7.236   1.567  0.00  0.00    +0.002 A 
BRANCH  26  29
ATOM     29  C   UNL     1      -1.040   4.084   2.670  0.00  0.00    -0.018 A 
ATOM     30  C   UNL     1       0.043   3.239   2.901  0.00  0.00    +0.008 A 
ATOM     31  C   UNL     1      -0.173   1.946   3.333  0.00  0.00    +0.001 A 
ATOM     32  C   UNL     1      -1.462   1.489   3.536  0.00  0.00    +0.000 A 
ATOM     33  C   UNL     1      -2.542   2.321   3.303  0.00  0.00    +0.001 A 
ATOM     34  C   UNL     1      -2.337   3.618   2.876  0.00  0.00    +0.008 A 
ENDBRANCH  26  29
ENDBRANCH  22  23
ENDBRANCH   7  22
TORSDOF 7
