REMARK  Name = ZINC38660377
REMARK  14 active torsions:
REMARK  status: ('A' for Active; 'I' for Inactive)
REMARK    1  A    between atoms: C_1  and  C_2
REMARK    2  A    between atoms: C_2  and  C_3
REMARK    3  A    between atoms: C_2  and  C_4
REMARK    4  A    between atoms: C_4  and  C_5
REMARK    5  A    between atoms: C_5  and  O_6
REMARK    6  A    between atoms: O_6  and  C_7
REMARK    7  A    between atoms: C_10  and  C_15
REMARK    8  A    between atoms: C_12  and  O_13
REMARK    9  A    between atoms: O_13  and  C_14
REMARK   10  A    between atoms: C_20  and  O_29
REMARK   11  A    between atoms: C_24  and  N_28
REMARK   12  A    between atoms: C_25  and  C_26
REMARK   13  A    between atoms: O_29  and  C_30
REMARK   14  A    between atoms: C_30  and  C_32
REMARK                            x       y       z     vdW  Elec       q    Type
REMARK                         _______ _______ _______ _____ _____    ______ ____
ROOT
ATOM      1  C   UNL     1      -1.730   0.549   8.676  0.00  0.00    +0.098 C 
ATOM      2  C   UNL     1      -3.085  -0.106   8.733  0.00  0.00    +0.008 A 
ATOM      3  C   UNL     1      -3.170  -1.483   8.839  0.00  0.00    +0.012 A 
ATOM      4  C   UNL     1      -4.403  -2.102   8.893  0.00  0.00    +0.047 A 
ATOM      5  C   UNL     1      -5.563  -1.342   8.840  0.00  0.00    +0.135 A 
ATOM      6  C   UNL     1      -5.481   0.037   8.732  0.00  0.00    +0.093 A 
ATOM      7  C   UNL     1      -4.240   0.657   8.678  0.00  0.00    +0.138 A 
ATOM      8  O   UNL     1      -4.177   2.008   8.574  0.00  0.00    -0.441 OA
ATOM      9  C   UNL     1      -3.046   2.653   8.904  0.00  0.00    +0.199 C 
ATOM     10  C   UNL     1      -1.855   2.018   8.969  0.00  0.00    +0.098 C 
ENDROOT
BRANCH   1  14
ATOM     11  C   UNL     1      -0.067   0.023   4.771  0.00  0.00    +0.162 A 
ATOM     12  C   UNL     1      -1.266   0.699   4.931  0.00  0.00    +0.050 A 
ATOM     13  C   UNL     1      -1.802   0.867   6.195  0.00  0.00    +0.008 A 
ATOM     14  C   UNL     1      -1.143   0.363   7.301  0.00  0.00    -0.031 A 
ATOM     15  C   UNL     1       0.055  -0.311   7.148  0.00  0.00    +0.054 A 
ATOM     16  C   UNL     1       0.594  -0.489   5.884  0.00  0.00    +0.162 A 
BRANCH  16  17
ATOM     17  O   UNL     1       1.768  -1.157   5.732  0.00  0.00    -0.491 OA
ATOM     18  C   UNL     1       2.390  -1.655   6.918  0.00  0.00    +0.277 C 
ENDBRANCH  16  17
BRANCH  11  19
ATOM     19  O   UNL     1       0.461  -0.143   3.529  0.00  0.00    -0.488 OA
BRANCH  19  20
ATOM     20  C   UNL     1      -0.272   0.409   2.434  0.00  0.00    +0.229 C 
BRANCH  20  21
ATOM     21  C   UNL     1       0.472   0.124   1.127  0.00  0.00    +0.044 C 
BRANCH  21  23
ATOM     22  C   UNL     1      -0.343   2.240   0.078  0.00  0.00    +0.007 C 
ATOM     23  C   UNL     1      -0.312   0.715  -0.046  0.00  0.00    -0.014 C 
ATOM     24  C   UNL     1       0.364   0.323  -1.361  0.00  0.00    +0.007 C 
ENDBRANCH  21  23
ENDBRANCH  20  21
ENDBRANCH  19  20
ENDBRANCH  11  19
ENDBRANCH   1  14
BRANCH   9  25
ATOM     25  N   UNL     1      -3.102   3.996   9.182  0.00  0.00    -0.328 N 
ATOM     26  H   UNL     1      -3.950   4.465   9.139  0.00  0.00    +0.145 HD
ATOM     27  H   UNL     1      -2.294   4.476   9.422  0.00  0.00    +0.145 HD
ENDBRANCH   9  25
BRANCH  10  28
ATOM     28  C   UNL     1      -0.686   2.764   9.326  0.00  0.00    +0.101 C 
ATOM     29  N   UNL     1       0.241   3.356   9.609  0.00  0.00    -0.191 NA
ENDBRANCH  10  28
BRANCH   5  30
ATOM     30  O   UNL     1      -6.778  -1.950   8.893  0.00  0.00    -0.422 OA
BRANCH  30  31
ATOM     31  C   UNL     1      -7.538  -1.944   7.779  0.00  0.00    +0.351 C 
ATOM     32  O   UNL     1      -7.090  -1.500   6.739  0.00  0.00    -0.244 OA
BRANCH  31  33
ATOM     33  C   UNL     1      -8.902  -2.473   7.821  0.00  0.00    +0.097 A 
ATOM     34  C   UNL     1      -9.837  -2.565   6.799  0.00  0.00    +0.022 A 
ATOM     35  C   UNL     1     -11.047  -3.115   7.146  0.00  0.00    +0.008 A 
ATOM     36  C   UNL     1     -11.246  -3.520   8.425  0.00  0.00    +0.046 A 
ATOM     37  S   UNL     1      -9.794  -3.175   9.196  0.00  0.00    -0.090 S 
ENDBRANCH  31  33
ENDBRANCH  30  31
ENDBRANCH   5  30
TORSDOF 11
