REMARK  Name = ZINC37936374
REMARK  3 active torsions:
REMARK  status: ('A' for Active; 'I' for Inactive)
REMARK    1  A    between atoms: C_7  and  C_11
REMARK    2  A    between atoms: C_7  and  N_13
REMARK    3  A    between atoms: N_13  and  C_14
REMARK                            x       y       z     vdW  Elec       q    Type
REMARK                         _______ _______ _______ _____ _____    ______ ____
ROOT
ATOM      1  C   UNL     1       0.283   1.377   0.012  0.00  0.00    +0.001 A 
ATOM      2  C   UNL     1       1.517   2.001  -0.022  0.00  0.00    +0.004 A 
ATOM      3  C   UNL     1       2.670   1.245  -0.065  0.00  0.00    +0.046 A 
ATOM      4  C   UNL     1       2.597  -0.144  -0.074  0.00  0.00    +0.127 A 
ATOM      5  C   UNL     1       1.361  -0.766  -0.036  0.00  0.00    +0.032 A 
ATOM      6  C   UNL     1       0.206  -0.002   0.005  0.00  0.00    +0.010 A 
ATOM      7  C   UNL     1       1.237  -2.268  -0.033  0.00  0.00    +0.151 C 
ATOM      8  C   UNL     1       2.548  -2.895  -0.516  0.00  0.00    +0.087 C 
ATOM      9  C   UNL     1       3.706  -2.234   0.242  0.00  0.00    +0.232 C 
ATOM     10  O   UNL     1       3.754  -0.854  -0.123  0.00  0.00    -0.491 OA
ENDROOT
BRANCH   7  11
ATOM     11  C   UNL     1       0.947  -2.733   1.333  0.00  0.00    +0.093 C 
ATOM     12  N   UNL     1       0.722  -3.091   2.388  0.00  0.00    -0.194 NA
ENDBRANCH   7  11
BRANCH   7  13
ATOM     13  N   UNL     1       0.147  -2.670  -0.926  0.00  0.00    -0.323 N 
ATOM     14  H   UNL     1      -0.573  -3.227  -0.591  0.00  0.00    +0.148 HD
BRANCH  13  15
ATOM     15  C   UNL     1       0.145  -2.250  -2.258  0.00  0.00    +0.029 A 
ATOM     16  C   UNL     1       1.187  -1.471  -2.744  0.00  0.00    +0.024 A 
ATOM     17  C   UNL     1       1.182  -1.058  -4.062  0.00  0.00    +0.017 A 
ATOM     18  C   UNL     1       0.140  -1.418  -4.898  0.00  0.00    +0.018 A 
ATOM     19  C   UNL     1      -0.900  -2.194  -4.416  0.00  0.00    +0.017 A 
ATOM     20  C   UNL     1      -0.897  -2.615  -3.101  0.00  0.00    +0.024 A 
ATOM     21 BR   UNL     1       0.136  -0.849  -6.701  0.00  0.00    -0.050 Br
ENDBRANCH  13  15
ENDBRANCH   7  13
TORSDOF 3
