REMARK  Name = ZINC22930526
REMARK  11 active torsions:
REMARK  status: ('A' for Active; 'I' for Inactive)
REMARK    1  A    between atoms: C_1  and  C_2
REMARK    2  A    between atoms: C_2  and  O_3
REMARK    3  A    between atoms: O_3  and  C_4
REMARK    4  A    between atoms: C_4  and  C_6
REMARK    5  A    between atoms: C_7  and  N_17
REMARK    6  A    between atoms: C_18  and  C_20
REMARK    7  A    between atoms: C_20  and  C_22
REMARK    8  A    between atoms: C_20  and  N_23
REMARK    9  A    between atoms: N_26  and  C_29
REMARK   10  A    between atoms: C_29  and  C_30
REMARK   11  A    between atoms: C_31  and  C_32
REMARK                            x       y       z     vdW  Elec       q    Type
REMARK                         _______ _______ _______ _____ _____    ______ ____
ROOT
ATOM      1  N   UNL     1       0.980  -4.736  -2.099  0.00  0.00    -0.282 N 
ATOM      2  C   UNL     1      -0.054  -4.537  -1.258  0.00  0.00    +0.234 C 
ATOM      3  O   UNL     1      -0.580  -3.447  -1.189  0.00  0.00    -0.274 OA
ATOM      4  H   UNL     1       1.355  -5.624  -2.205  0.00  0.00    +0.155 HD
ENDROOT
BRANCH   1   6
ATOM      5  C   UNL     1       2.105  -3.722  -4.058  0.00  0.00    +0.147 A 
ATOM      6  C   UNL     1       1.508  -3.667  -2.815  0.00  0.00    +0.073 A 
ATOM      7  C   UNL     1       1.540  -2.263  -2.397  0.00  0.00    +0.024 A 
ATOM      8  C   UNL     1       1.096  -1.590  -1.254  0.00  0.00    +0.050 A 
ATOM      9  C   UNL     1       1.276  -0.229  -1.152  0.00  0.00    +0.124 A 
ATOM     10  C   UNL     1       1.895   0.477  -2.178  0.00  0.00    +0.040 A 
ATOM     11  C   UNL     1       2.337  -0.172  -3.309  0.00  0.00    +0.029 A 
ATOM     12  C   UNL     1       2.167  -1.548  -3.434  0.00  0.00    +0.049 A 
ATOM     13  N   UNL     1       2.505  -2.445  -4.423  0.00  0.00    -0.348 N 
ATOM     14  H   UNL     1       2.953  -2.217  -5.252  0.00  0.00    +0.166 HD
ATOM     15  F   UNL     1       0.848   0.425  -0.050  0.00  0.00    -0.205 F 
BRANCH   5  16
ATOM     16  C   UNL     1       2.286  -4.895  -4.834  0.00  0.00    +0.358 C 
ATOM     17  O   UNL     1       1.991  -5.982  -4.372  0.00  0.00    -0.243 OA
BRANCH  16  18
ATOM     18  O   UNL     1       2.786  -4.807  -6.084  0.00  0.00    -0.460 OA
BRANCH  18  20
ATOM     19  C   UNL     1       3.517  -5.730  -8.195  0.00  0.00    +0.048 C 
ATOM     20  C   UNL     1       2.942  -6.029  -6.809  0.00  0.00    +0.229 C 
ENDBRANCH  18  20
ENDBRANCH  16  18
ENDBRANCH   5  16
ENDBRANCH   1   6
BRANCH   2  21
ATOM     21  C   UNL     1      -0.557  -5.671  -0.402  0.00  0.00    +0.140 C 
ATOM     22  C   UNL     1      -1.026  -6.819  -1.298  0.00  0.00    +0.034 C 
BRANCH  21  23
ATOM     23  N   UNL     1      -1.681  -5.202   0.421  0.00  0.00    -0.295 NA
ATOM     24  C   UNL     1      -2.840  -4.862  -0.416  0.00  0.00    +0.066 C 
ATOM     25  C   UNL     1      -3.965  -4.324   0.471  0.00  0.00    -0.063 C 
ATOM     26  N   UNL     1      -4.337  -5.341   1.462  0.00  0.00    +0.384 N 
ATOM     27  C   UNL     1      -3.176  -5.653   2.306  0.00  0.00    -0.063 C 
ATOM     28  C   UNL     1      -2.044  -6.202   1.435  0.00  0.00    +0.066 C 
ATOM     29  H   UNL     1      -4.641  -6.178   0.988  0.00  0.00    -0.081 HD
BRANCH  26  30
ATOM     30  C   UNL     1      -5.429  -4.831   2.302  0.00  0.00    -0.051 C 
BRANCH  30  31
ATOM     31  C   UNL     1      -5.894  -5.917   3.237  0.00  0.00    -0.045 C 
ATOM     32  C   UNL     1      -5.919  -5.700   4.545  0.00  0.00    +0.002 C 
BRANCH  32  33
ATOM     33  C   UNL     1      -6.375  -6.765   5.462  0.00  0.00    -0.025 A 
ATOM     34  C   UNL     1      -6.773  -8.003   4.956  0.00  0.00    +0.008 A 
ATOM     35  C   UNL     1      -7.198  -8.993   5.818  0.00  0.00    +0.001 A 
ATOM     36  C   UNL     1      -7.229  -8.761   7.181  0.00  0.00    +0.000 A 
ATOM     37  C   UNL     1      -6.836  -7.536   7.690  0.00  0.00    +0.001 A 
ATOM     38  C   UNL     1      -6.403  -6.540   6.839  0.00  0.00    +0.008 A 
ENDBRANCH  32  33
ENDBRANCH  30  31
ENDBRANCH  26  30
ENDBRANCH  21  23
ENDBRANCH   2  21
TORSDOF 9
