REMARK  Name = ZINC09615519
REMARK  6 active torsions:
REMARK  status: ('A' for Active; 'I' for Inactive)
REMARK    1  A    between atoms: C_6  and  N_7
REMARK    2  A    between atoms: N_15  and  C_18
REMARK    3  A    between atoms: C_18  and  C_19
REMARK    4  A    between atoms: N_21  and  C_22
REMARK    5  A    between atoms: C_22  and  C_23
REMARK    6  A    between atoms: C_23  and  C_24
REMARK                            x       y       z     vdW  Elec       q    Type
REMARK                         _______ _______ _______ _____ _____    ______ ____
ROOT
ATOM      1  N   UNL     1       3.459  -3.421   3.369  0.00  0.00    -0.228 N 
ATOM      2  C   UNL     1       2.568  -2.985   2.461  0.00  0.00    +0.270 A 
ATOM      3  O   UNL     1       1.414  -3.371   2.495  0.00  0.00    -0.266 OA
ATOM      4  C   UNL     1       3.008  -2.030   1.420  0.00  0.00    +0.074 A 
ATOM      5  C   UNL     1       2.212  -1.429   0.344  0.00  0.00    -0.023 A 
ATOM      6  C   UNL     1       2.879  -0.591  -0.475  0.00  0.00    -0.004 A 
ATOM      7  S   UNL     1       4.537  -0.565   0.150  0.00  0.00    -0.075 S 
ATOM      8  C   UNL     1       4.349  -1.655   1.471  0.00  0.00    +0.097 A 
ATOM      9  N   UNL     1       5.191  -2.147   2.432  0.00  0.00    -0.278 N 
ATOM     10  C   UNL     1       4.739  -3.014   3.358  0.00  0.00    +0.338 A 
ATOM     11  O   UNL     1       5.505  -3.437   4.202  0.00  0.00    -0.246 OA
ATOM     12  C   UNL     1       2.345   0.144  -1.665  0.00  0.00    +0.043 C 
ATOM     13  C   UNL     1       1.036   0.846  -1.279  0.00  0.00    +0.005 C 
ATOM     14  C   UNL     1      -0.121  -0.114  -1.537  0.00  0.00    +0.001 C 
ATOM     15  C   UNL     1       0.324  -1.553  -1.284  0.00  0.00    +0.005 C 
ATOM     16  C   UNL     1       0.730  -1.736   0.175  0.00  0.00    +0.037 C 
ENDROOT
BRANCH   1  22
ATOM     17  C   UNL     1       2.549  -3.857   5.565  0.00  0.00    +0.028 A 
ATOM     18  C   UNL     1       2.131  -4.751   6.532  0.00  0.00    +0.022 A 
ATOM     19  C   UNL     1       2.213  -6.112   6.299  0.00  0.00    +0.041 A 
ATOM     20  C   UNL     1       2.707  -6.582   5.095  0.00  0.00    +0.022 A 
ATOM     21  C   UNL     1       3.121  -5.693   4.123  0.00  0.00    +0.028 A 
ATOM     22  C   UNL     1       3.040  -4.326   4.354  0.00  0.00    +0.054 A 
ATOM     23 CL   UNL     1       1.694  -7.233   7.519  0.00  0.00    -0.084 Cl
ENDBRANCH   1  22
BRANCH   9  24
ATOM     24  C   UNL     1       6.595  -1.728   2.452  0.00  0.00    +0.223 C 
BRANCH  24  25
ATOM     25  C   UNL     1       6.739  -0.498   3.311  0.00  0.00    +0.233 C 
ATOM     26  O   UNL     1       5.765  -0.019   3.853  0.00  0.00    -0.274 OA
ATOM     27  N   UNL     1       7.950   0.070   3.477  0.00  0.00    -0.314 N 
ATOM     28  H   UNL     1       8.729  -0.314   3.044  0.00  0.00    +0.149 HD
BRANCH  27  29
ATOM     29  C   UNL     1       8.090   1.265   4.312  0.00  0.00    +0.108 C 
BRANCH  29  30
ATOM     30  C   UNL     1       9.556   1.703   4.333  0.00  0.00    +0.049 C 
BRANCH  30  31
ATOM     31  C   UNL     1       9.700   2.933   5.192  0.00  0.00    -0.072 C 
ATOM     32  C   UNL     1      10.039   2.772   6.431  0.00  0.00    -0.028 C 
ATOM     33  C   UNL     1      10.212   3.897   7.409  0.00  0.00    +0.027 C 
ATOM     34  C   UNL     1      10.353   5.226   6.663  0.00  0.00    +0.004 C 
ATOM     35  C   UNL     1       9.218   5.330   5.637  0.00  0.00    +0.005 C 
ATOM     36  C   UNL     1       9.447   4.269   4.557  0.00  0.00    +0.030 C 
ENDBRANCH  30  31
ENDBRANCH  29  30
ENDBRANCH  27  29
ENDBRANCH  24  25
ENDBRANCH   9  24
TORSDOF 6
