REMARK  Name = ZINC16731680
REMARK  5 active torsions:
REMARK  status: ('A' for Active; 'I' for Inactive)
REMARK    1  A    between atoms: C_8  and  N_26
REMARK    2  A    between atoms: C_9  and  C_12
REMARK    3  A    between atoms: N_16  and  C_20
REMARK    4  A    between atoms: C_20  and  C_21
REMARK    5  A    between atoms: N_26  and  C_27
REMARK                            x       y       z     vdW  Elec       q    Type
REMARK                         _______ _______ _______ _____ _____    ______ ____
ROOT
ATOM      1  C   UNL     1       7.391   0.023   9.440  0.00  0.00    +0.005 A 
ATOM      2  C   UNL     1       7.053  -0.972   8.513  0.00  0.00    +0.018 A 
ATOM      3  C   UNL     1       6.553  -0.630   7.304  0.00  0.00    +0.096 A 
ATOM      4  N   UNL     1       6.371   0.678   6.968  0.00  0.00    -0.268 N 
ATOM      5  C   UNL     1       6.692   1.671   7.851  0.00  0.00    +0.142 A 
ATOM      6  C   UNL     1       7.213   1.335   9.114  0.00  0.00    +0.047 A 
ATOM      7  N   UNL     1       6.522   2.957   7.541  0.00  0.00    -0.214 NA
ATOM      8  C   UNL     1       6.035   3.330   6.367  0.00  0.00    +0.134 A 
ATOM      9  C   UNL     1       5.685   2.346   5.412  0.00  0.00    +0.081 A 
ATOM     10  C   UNL     1       5.865   0.985   5.754  0.00  0.00    +0.267 A 
ATOM     11  O   UNL     1       5.573   0.103   4.964  0.00  0.00    -0.267 OA
ENDROOT
BRANCH   9  12
ATOM     12  C   UNL     1       5.163   2.714   4.150  0.00  0.00    +0.037 C 
ATOM     13  C   UNL     1       5.868   3.555   3.339  0.00  0.00    +0.077 C 
ATOM     14  C   UNL     1       5.489   4.149   2.101  0.00  0.00    +0.259 C 
ATOM     15  O   UNL     1       4.393   3.933   1.612  0.00  0.00    -0.269 OA
ATOM     16  N   UNL     1       6.360   4.936   1.495  0.00  0.00    -0.248 N 
ATOM     17  C   UNL     1       7.573   5.180   2.040  0.00  0.00    +0.121 C 
ATOM     18  S   UNL     1       8.841   6.161   1.440  0.00  0.00    -0.027 S 
ATOM     19  S   UNL     1       7.515   4.218   3.544  0.00  0.00    -0.061 S 
BRANCH  16  20
ATOM     20  C   UNL     1       6.004   5.558   0.217  0.00  0.00    +0.189 C 
BRANCH  20  21
ATOM     21  C   UNL     1       6.418   4.654  -0.915  0.00  0.00    +0.122 A 
ATOM     22  C   UNL     1       5.659   3.693  -1.472  0.00  0.00    +0.046 A 
ATOM     23  C   UNL     1       6.436   3.095  -2.490  0.00  0.00    +0.041 A 
ATOM     24  C   UNL     1       7.624   3.726  -2.494  0.00  0.00    +0.195 A 
ATOM     25  O   UNL     1       7.607   4.669  -1.538  0.00  0.00    -0.466 OA
ENDBRANCH  20  21
ENDBRANCH  16  20
ENDBRANCH   9  12
BRANCH   8  26
ATOM     26  N   UNL     1       5.871   4.667   6.077  0.00  0.00    -0.326 N 
ATOM     27  H   UNL     1       5.514   4.936   5.216  0.00  0.00    +0.148 HD
BRANCH  26  28
ATOM     28  C   UNL     1       6.235   5.681   7.069  0.00  0.00    +0.072 C 
ATOM     29  C   UNL     1       5.065   5.896   8.031  0.00  0.00    +0.022 C 
ATOM     30  C   UNL     1       5.445   6.956   9.068  0.00  0.00    +0.002 C 
ATOM     31  C   UNL     1       5.769   8.271   8.357  0.00  0.00    +0.000 C 
ATOM     32  C   UNL     1       6.939   8.056   7.394  0.00  0.00    +0.002 C 
ATOM     33  C   UNL     1       6.559   6.997   6.358  0.00  0.00    +0.022 C 
ENDBRANCH  26  28
ENDBRANCH   8  26
TORSDOF 5
