REMARK  Name = ZINC64794536
REMARK  8 active torsions:
REMARK  status: ('A' for Active; 'I' for Inactive)
REMARK    1  A    between atoms: C_4  and  N_7
REMARK    2  A    between atoms: C_8  and  C_10
REMARK    3  A    between atoms: C_10  and  S_11
REMARK    4  A    between atoms: S_11  and  C_12
REMARK    5  A    between atoms: C_15  and  C_24
REMARK    6  A    between atoms: N_16  and  C_17
REMARK    7  A    between atoms: C_17  and  C_18
REMARK    8  A    between atoms: C_25  and  N_33
REMARK                            x       y       z     vdW  Elec       q    Type
REMARK                         _______ _______ _______ _____ _____    ______ ____
ROOT
ATOM      1  C   UNL     1       6.276  -5.205   0.371  0.00  0.00    +0.192 A 
ATOM      2  N   UNL     1       7.411  -4.545   0.370  0.00  0.00    -0.122 NA
ATOM      3  N   UNL     1       8.399  -5.361   0.459  0.00  0.00    -0.128 NA
ATOM      4  C   UNL     1       7.954  -6.598   0.523  0.00  0.00    +0.173 A 
ATOM      5  N   UNL     1       6.579  -6.535   0.474  0.00  0.00    -0.299 N 
ENDROOT
BRANCH   4   6
ATOM      6  C   UNL     1       8.770  -7.816   0.630  0.00  0.00    +0.080 A 
ATOM      7  C   UNL     1      10.126  -7.919   0.692  0.00  0.00    +0.052 A 
ATOM      8  C   UNL     1      10.722  -9.242   0.797  0.00  0.00    +0.029 A 
ATOM      9  C   UNL     1      12.093  -9.594   0.874  0.00  0.00    +0.014 A 
ATOM     10  C   UNL     1      12.434 -10.923   0.969  0.00  0.00    +0.020 A 
ATOM     11  C   UNL     1      11.451 -11.901   0.988  0.00  0.00    +0.112 A 
ATOM     12  N   UNL     1      10.176 -11.569   0.916  0.00  0.00    -0.248 NA
ATOM     13  C   UNL     1       9.799 -10.313   0.825  0.00  0.00    +0.111 A 
ATOM     14  S   UNL     1       8.220  -9.508   0.719  0.00  0.00    -0.064 S 
BRANCH   7  15
ATOM     15  N   UNL     1      10.932  -6.774   0.654  0.00  0.00    -0.356 N 
ATOM     16  H   UNL     1      10.525  -5.896   0.584  0.00  0.00    +0.142 HD
ATOM     17  H   UNL     1      11.897  -6.858   0.699  0.00  0.00    +0.142 HD
ENDBRANCH   7  15
ENDBRANCH   4   6
BRANCH   1  18
ATOM     18  S   UNL     1       4.661  -4.506   0.267  0.00  0.00    -0.077 S 
BRANCH  18  19
ATOM     19  C   UNL     1       4.962  -2.721   0.153  0.00  0.00    +0.173 C 
BRANCH  19  21
ATOM     20  N   UNL     1       3.622  -0.651  -0.037  0.00  0.00    -0.285 N 
ATOM     21  C   UNL     1       3.645  -1.995   0.057  0.00  0.00    +0.227 C 
ATOM     22  O   UNL     1       2.606  -2.620   0.064  0.00  0.00    -0.275 OA
ATOM     23  H   UNL     1       4.452  -0.156  -0.121  0.00  0.00    +0.155 HD
BRANCH  20  27
ATOM     24  C   UNL     1      -0.015   1.381   0.029  0.00  0.00    +0.000 A 
ATOM     25  C   UNL     1       0.140   0.218   0.763  0.00  0.00    +0.002 A 
ATOM     26  C   UNL     1       1.344  -0.457   0.743  0.00  0.00    +0.023 A 
ATOM     27  C   UNL     1       2.400   0.031  -0.015  0.00  0.00    +0.033 A 
ATOM     28  C   UNL     1       2.241   1.198  -0.751  0.00  0.00    +0.023 A 
ATOM     29  C   UNL     1       1.034   1.870  -0.727  0.00  0.00    +0.002 A 
ENDBRANCH  20  27
ENDBRANCH  19  21
ENDBRANCH  18  19
ENDBRANCH   1  18
BRANCH   5  30
ATOM     30  C   UNL     1       5.638  -7.657   0.520  0.00  0.00    +0.157 C 
BRANCH  30  31
ATOM     31  C   UNL     1       5.360  -8.148  -0.902  0.00  0.00    +0.138 C 
ATOM     32  C   UNL     1       4.438  -9.393  -0.870  0.00  0.00    +0.035 C 
ATOM     33  C   UNL     1       3.788  -9.314  -2.279  0.00  0.00    +0.031 C 
ATOM     34  C   UNL     1       3.680  -7.791  -2.505  0.00  0.00    +0.160 C 
ATOM     35  O   UNL     1       4.628  -7.155  -1.638  0.00  0.00    -0.375 OA
ENDBRANCH  30  31
ENDBRANCH   5  30
TORSDOF 8
