REMARK  Name = ZINC39909326
REMARK  6 active torsions:
REMARK  status: ('A' for Active; 'I' for Inactive)
REMARK    1  A    between atoms: C_1  and  C_2
REMARK    2  A    between atoms: C_6  and  C_31
REMARK    3  A    between atoms: C_7  and  C_11
REMARK    4  A    between atoms: N_13  and  C_14
REMARK    5  A    between atoms: N_13  and  C_23
REMARK    6  A    between atoms: C_14  and  C_15
REMARK                            x       y       z     vdW  Elec       q    Type
REMARK                         _______ _______ _______ _____ _____    ______ ____
ROOT
ATOM      1  C   UNL     1       0.174  -5.410   2.514  0.00  0.00    +0.283 C 
ATOM      2  O   UNL     1       0.263  -4.361   1.906  0.00  0.00    -0.267 OA
ATOM      3  N   UNL     1      -0.003  -5.402   3.850  0.00  0.00    -0.286 N 
ENDROOT
BRANCH   1  10
ATOM      4  C   UNL     1       0.548 -12.515   0.445  0.00  0.00    +0.044 C 
ATOM      5  C   UNL     1       0.499 -11.011   0.359  0.00  0.00    -0.047 A 
ATOM      6  C   UNL     1       0.550 -10.392  -0.882  0.00  0.00    +0.004 A 
ATOM      7  C   UNL     1       0.507  -9.030  -0.979  0.00  0.00    +0.012 A 
ATOM      8  C   UNL     1       0.412  -8.256   0.180  0.00  0.00    +0.024 A 
ATOM      9  C   UNL     1       0.345  -6.819   0.444  0.00  0.00    +0.008 A 
ATOM     10  C   UNL     1       0.262  -6.688   1.793  0.00  0.00    +0.194 A 
ATOM     11  O   UNL     1       0.271  -7.907   2.371  0.00  0.00    -0.450 OA
ATOM     12  C   UNL     1       0.360  -8.878   1.441  0.00  0.00    +0.136 A 
ATOM     13  C   UNL     1       0.400 -10.266   1.514  0.00  0.00    +0.050 A 
ATOM     14  C   UNL     1       0.365  -5.709  -0.575  0.00  0.00    +0.048 C 
ENDBRANCH   1  10
BRANCH   3  15
ATOM     15  C   UNL     1      -0.217  -4.134   4.553  0.00  0.00    +0.099 C 
ATOM     16  C   UNL     1       1.045  -3.265   4.434  0.00  0.00    +0.047 C 
ATOM     17  C   UNL     1       0.689  -1.826   4.905  0.00  0.00    +0.168 C 
ATOM     18  S   UNL     1      -0.980  -1.627   4.149  0.00  0.00    -0.029 S 
ATOM     19  O   UNL     1      -0.839  -1.022   2.871  0.00  0.00    -0.174 OA
ATOM     20  O   UNL     1      -1.855  -1.046   5.105  0.00  0.00    -0.174 OA
ATOM     21  C   UNL     1      -1.425  -3.397   3.925  0.00  0.00    +0.188 C 
ENDBRANCH   3  15
BRANCH   3  22
ATOM     22  C   UNL     1       0.018  -6.660   4.600  0.00  0.00    +0.145 C 
BRANCH  22  23
ATOM     23  C   UNL     1       1.425  -6.950   5.056  0.00  0.00    -0.012 A 
ATOM     24  C   UNL     1       2.224  -7.812   4.327  0.00  0.00    +0.008 A 
ATOM     25  C   UNL     1       3.514  -8.078   4.745  0.00  0.00    +0.020 A 
ATOM     26  C   UNL     1       4.008  -7.481   5.891  0.00  0.00    +0.042 A 
ATOM     27  C   UNL     1       3.210  -6.618   6.620  0.00  0.00    +0.040 A 
ATOM     28  C   UNL     1       1.919  -6.349   6.199  0.00  0.00    +0.047 A 
ATOM     29 CL   UNL     1       0.919  -5.261   7.110  0.00  0.00    -0.083 Cl
ATOM     30 CL   UNL     1       5.629  -7.816   6.415  0.00  0.00    -0.083 Cl
ENDBRANCH  22  23
ENDBRANCH   3  22
TORSDOF 4
