REMARK  Name = ZINC49933320
REMARK  4 active torsions:
REMARK  status: ('A' for Active; 'I' for Inactive)
REMARK    1  A    between atoms: C_1  and  S_2
REMARK    2  A    between atoms: S_2  and  C_3
REMARK    3  A    between atoms: C_6  and  C_9
REMARK    4  A    between atoms: C_26  and  C_28
REMARK                            x       y       z     vdW  Elec       q    Type
REMARK                         _______ _______ _______ _____ _____    ______ ____
ROOT
ATOM      1  C   UNL     1      -5.338  -1.675  -0.172  0.00  0.00    +0.215 C 
ATOM      2  C   UNL     1      -6.007  -1.860  -1.534  0.00  0.00    +0.113 C 
ATOM      3  C   UNL     1      -5.091  -2.792  -2.311  0.00  0.00    +0.065 C 
ATOM      4  C   UNL     1      -4.594  -3.974  -1.597  0.00  0.00    +0.039 A 
ATOM      5  C   UNL     1      -4.047  -5.061  -2.277  0.00  0.00    +0.013 A 
ATOM      6  C   UNL     1      -3.584  -6.148  -1.565  0.00  0.00    +0.001 A 
ATOM      7  C   UNL     1      -3.664  -6.158  -0.182  0.00  0.00    +0.004 A 
ATOM      8  C   UNL     1      -4.207  -5.088   0.502  0.00  0.00    +0.046 A 
ATOM      9  C   UNL     1      -4.681  -3.986  -0.193  0.00  0.00    +0.130 A 
ATOM     10  O   UNL     1      -5.228  -2.943   0.477  0.00  0.00    -0.483 OA
ATOM     11  N   UNL     1      -4.735  -2.491  -3.515  0.00  0.00    -0.215 NA
ATOM     12  C   UNL     1      -5.036  -1.324  -4.138  0.00  0.00    +0.249 A 
ATOM     13  N   UNL     1      -4.759  -0.917  -5.372  0.00  0.00    -0.198 NA
ATOM     14  C   UNL     1      -5.213   0.318  -5.556  0.00  0.00    +0.247 A 
ATOM     15  N   UNL     1      -5.797   0.733  -4.461  0.00  0.00    -0.156 NA
ATOM     16  N   UNL     1      -5.717  -0.316  -3.537  0.00  0.00    -0.221 N 
ATOM     17  C   UNL     1      -6.229  -0.474  -2.167  0.00  0.00    +0.154 C 
ENDROOT
BRANCH  17  18
ATOM     18  C   UNL     1      -5.564   0.557  -1.292  0.00  0.00    -0.021 A 
ATOM     19  C   UNL     1      -4.450   1.237  -1.749  0.00  0.00    +0.006 A 
ATOM     20  C   UNL     1      -3.839   2.183  -0.948  0.00  0.00    +0.002 A 
ATOM     21  C   UNL     1      -4.342   2.450   0.312  0.00  0.00    +0.020 A 
ATOM     22  C   UNL     1      -5.456   1.770   0.770  0.00  0.00    +0.041 A 
ATOM     23  C   UNL     1      -6.071   0.828  -0.035  0.00  0.00    +0.025 A 
ATOM     24 CL   UNL     1      -6.088   2.105   2.352  0.00  0.00    -0.084 Cl
ENDBRANCH  17  18
BRANCH   1  28
ATOM     25  C   UNL     1      -1.441  -0.005  -0.711  0.00  0.00    +0.008 A 
ATOM     26  C   UNL     1      -1.959  -0.168   0.569  0.00  0.00    +0.015 A 
ATOM     27  C   UNL     1      -3.218  -0.707   0.739  0.00  0.00    +0.008 A 
ATOM     28  C   UNL     1      -3.964  -1.086  -0.362  0.00  0.00    -0.007 A 
ATOM     29  C   UNL     1      -3.453  -0.926  -1.637  0.00  0.00    +0.008 A 
ATOM     30  C   UNL     1      -2.196  -0.381  -1.815  0.00  0.00    +0.015 A 
BRANCH  25  32
ATOM     31  C   UNL     1       0.741   1.008   0.756  0.00  0.00    +0.090 C 
ATOM     32  S   UNL     1       0.166   0.684  -0.933  0.00  0.00    -0.129 S 
ENDBRANCH  25  32
ENDBRANCH   1  28
TORSDOF 3
