REMARK  Name = ZINC63948577
REMARK  7 active torsions:
REMARK  status: ('A' for Active; 'I' for Inactive)
REMARK    1  A    between atoms: C_1  and  C_2
REMARK    2  A    between atoms: C_2  and  C_4
REMARK    3  A    between atoms: C_2  and  N_14
REMARK    4  A    between atoms: C_4  and  C_5
REMARK    5  A    between atoms: C_15  and  C_17
REMARK    6  A    between atoms: C_24  and  N_27
REMARK    7  A    between atoms: C_28  and  C_30
REMARK                            x       y       z     vdW  Elec       q    Type
REMARK                         _______ _______ _______ _____ _____    ______ ____
ROOT
ATOM      1  N   UNL     1      -1.372  -0.511   0.012  0.00  0.00    -0.308 N 
ATOM      2  C   UNL     1      -2.051  -0.643  -1.145  0.00  0.00    +0.244 C 
ATOM      3  O   UNL     1      -1.522  -0.341  -2.197  0.00  0.00    -0.270 OA
ATOM      4  H   UNL     1      -1.794  -0.752   0.852  0.00  0.00    +0.149 HD
ENDROOT
BRANCH   2   5
ATOM      5  C   UNL     1      -3.435  -1.153  -1.134  0.00  0.00    +0.038 A 
ATOM      6  C   UNL     1      -4.058  -1.499   0.068  0.00  0.00    +0.015 A 
ATOM      7  C   UNL     1      -5.343  -1.974   0.085  0.00  0.00    +0.025 A 
ATOM      8  C   UNL     1      -6.083  -2.131  -1.105  0.00  0.00    +0.043 A 
ATOM      9  C   UNL     1      -5.437  -1.777  -2.297  0.00  0.00    +0.033 A 
ATOM     10  C   UNL     1      -4.153  -1.296  -2.328  0.00  0.00    +0.029 A 
ATOM     11  S   UNL     1      -6.628  -2.091  -3.580  0.00  0.00    -0.082 S 
ATOM     12  C   UNL     1      -7.998  -2.698  -2.516  0.00  0.00    +0.224 C 
ATOM     13  N   UNL     1      -7.386  -2.602  -1.184  0.00  0.00    -0.316 N 
ATOM     14  H   UNL     1      -7.876  -2.860  -0.388  0.00  0.00    +0.149 HD
BRANCH  12  15
ATOM     15  N   UNL     1      -9.173  -1.829  -2.622  0.00  0.00    -0.288 N 
ATOM     16  C   UNL     1      -9.968  -1.900  -3.707  0.00  0.00    +0.212 C 
ATOM     17  O   UNL     1      -9.711  -2.682  -4.597  0.00  0.00    -0.276 OA
ATOM     18  C   UNL     1     -11.176  -1.006  -3.815  0.00  0.00    +0.109 C 
ATOM     19  H   UNL     1      -9.378  -1.203  -1.910  0.00  0.00    +0.151 HD
ENDBRANCH  12  15
ENDBRANCH   2   5
BRANCH   1  21
ATOM     20  C   UNL     1      -0.019   1.526   0.010  0.00  0.00    +0.028 C 
ATOM     21  C   UNL     1       0.002  -0.004   0.002  0.00  0.00    +0.074 C 
BRANCH  21  22
ATOM     22  C   UNL     1       0.742  -0.511   1.242  0.00  0.00    +0.055 C 
BRANCH  22  23
ATOM     23  C   UNL     1       0.870  -2.011   1.172  0.00  0.00    -0.040 C 
ATOM     24  C   UNL     1       1.925  -2.716   0.704  0.00  0.00    -0.001 A 
ATOM     25  C   UNL     1       3.219  -2.313   0.141  0.00  0.00    +0.010 A 
ATOM     26  C   UNL     1       4.091  -3.271  -0.250  0.00  0.00    +0.001 A 
ATOM     27  C   UNL     1       3.790  -4.635  -0.131  0.00  0.00    +0.002 A 
ATOM     28  C   UNL     1       2.622  -5.082   0.377  0.00  0.00    +0.026 A 
ATOM     29  C   UNL     1       1.632  -4.163   0.820  0.00  0.00    +0.043 A 
ATOM     30  N   UNL     1       0.442  -4.344   1.339  0.00  0.00    -0.380 N 
ATOM     31  C   UNL     1      -0.153  -3.032   1.617  0.00  0.00    +0.144 C 
ATOM     32  H   UNL     1       0.025  -5.203   1.513  0.00  0.00    +0.160 HD
ENDBRANCH  22  23
ENDBRANCH  21  22
ENDBRANCH   1  21
TORSDOF 5
