REMARK  Name = ZINC02285490
REMARK  6 active torsions:
REMARK  status: ('A' for Active; 'I' for Inactive)
REMARK    1  A    between atoms: C_5  and  C_7
REMARK    2  A    between atoms: C_7  and  C_8
REMARK    3  A    between atoms: C_8  and  N_9
REMARK    4  A    between atoms: C_10  and  C_12
REMARK    5  A    between atoms: N_23  and  C_26
REMARK    6  A    between atoms: C_24  and  N_25
REMARK                            x       y       z     vdW  Elec       q    Type
REMARK                         _______ _______ _______ _____ _____    ______ ____
ROOT
ATOM      1  C   UNL     1      -0.906   1.704   3.633  0.00  0.00    +0.104 A 
ATOM      2  C   UNL     1      -0.650   2.960   4.357  0.00  0.00    +0.123 A 
ATOM      3  C   UNL     1      -1.591   2.960   5.480  0.00  0.00    +0.166 A 
ATOM      4  N   UNL     1      -1.597   3.974   6.319  0.00  0.00    -0.225 NA
ATOM      5  C   UNL     1      -0.747   4.993   6.140  0.00  0.00    +0.092 A 
ATOM      6  C   UNL     1      -0.747   6.082   7.032  0.00  0.00    +0.030 A 
ATOM      7  C   UNL     1       0.120   7.112   6.842  0.00  0.00    +0.002 A 
ATOM      8  C   UNL     1       1.015   7.110   5.773  0.00  0.00    +0.002 A 
ATOM      9  C   UNL     1       1.044   6.076   4.889  0.00  0.00    +0.030 A 
ATOM     10  C   UNL     1       0.162   4.991   5.053  0.00  0.00    +0.090 A 
ATOM     11  N   UNL     1       0.182   3.968   4.189  0.00  0.00    -0.241 NA
ATOM     12  N   UNL     1      -2.322   1.791   5.395  0.00  0.00    -0.280 N 
ATOM     13  C   UNL     1      -1.930   1.056   4.316  0.00  0.00    +0.117 A 
ENDROOT
BRANCH  12  14
ATOM     14  C   UNL     1      -3.331   1.414   6.291  0.00  0.00    +0.050 A 
ATOM     15  C   UNL     1      -3.018   1.143   7.617  0.00  0.00    +0.028 A 
ATOM     16  C   UNL     1      -4.016   0.777   8.499  0.00  0.00    +0.022 A 
ATOM     17  C   UNL     1      -5.324   0.670   8.061  0.00  0.00    +0.041 A 
ATOM     18  C   UNL     1      -5.637   0.935   6.740  0.00  0.00    +0.022 A 
ATOM     19  C   UNL     1      -4.644   1.306   5.854  0.00  0.00    +0.028 A 
ATOM     20 CL   UNL     1      -6.574   0.203   9.172  0.00  0.00    -0.084 Cl
ENDBRANCH  12  14
BRANCH   1  22
ATOM     21  N   UNL     1      -0.698   1.558   1.213  0.00  0.00    -0.311 N 
ATOM     22  C   UNL     1      -0.222   1.232   2.431  0.00  0.00    +0.250 C 
ATOM     23  O   UNL     1       0.779   0.545   2.530  0.00  0.00    -0.270 OA
ATOM     24  H   UNL     1      -1.495   2.106   1.135  0.00  0.00    +0.149 HD
BRANCH  21  25
ATOM     25  C   UNL     1      -0.013   1.086   0.008  0.00  0.00    +0.109 C 
BRANCH  25  26
ATOM     26  C   UNL     1      -0.753   1.593  -1.232  0.00  0.00    +0.056 C 
BRANCH  26  31
ATOM     27  C   UNL     1       1.528   1.470  -4.238  0.00  0.00    +0.000 A 
ATOM     28  C   UNL     1       1.248   0.215  -4.747  0.00  0.00    +0.003 A 
ATOM     29  C   UNL     1       0.321  -0.595  -4.120  0.00  0.00    +0.038 A 
ATOM     30  C   UNL     1      -0.329  -0.150  -2.981  0.00  0.00    +0.127 A 
ATOM     31  C   UNL     1      -0.047   1.107  -2.471  0.00  0.00    -0.011 A 
ATOM     32  C   UNL     1       0.876   1.917  -3.104  0.00  0.00    +0.006 A 
ATOM     33  F   UNL     1      -1.236  -0.940  -2.367  0.00  0.00    -0.205 F 
ENDBRANCH  26  31
ENDBRANCH  25  26
ENDBRANCH  21  25
ENDBRANCH   1  22
BRANCH  13  34
ATOM     34  N   UNL     1      -2.468  -0.152   3.955  0.00  0.00    -0.343 N 
ATOM     35  H   UNL     1      -2.134  -0.618   3.172  0.00  0.00    +0.144 HD
ATOM     36  H   UNL     1      -3.183  -0.541   4.482  0.00  0.00    +0.144 HD
ENDBRANCH  13  34
TORSDOF 6
