REMARK  Name = ZINC54623079
REMARK  10 active torsions:
REMARK  status: ('A' for Active; 'I' for Inactive)
REMARK    1  A    between atoms: C_1  and  C_2
REMARK    2  A    between atoms: C_2  and  C_3
REMARK    3  A    between atoms: C_3  and  O_4
REMARK    4  A    between atoms: O_4  and  C_5
REMARK    5  A    between atoms: C_8  and  C_11
REMARK    6  A    between atoms: C_16  and  C_20
REMARK    7  A    between atoms: C_16  and  C_21
REMARK    8  A    between atoms: C_26  and  S_28
REMARK    9  A    between atoms: S_28  and  C_29
REMARK   10  A    between atoms: C_29  and  C_30
REMARK                            x       y       z     vdW  Elec       q    Type
REMARK                         _______ _______ _______ _____ _____    ______ ____
ROOT
ATOM      1  C   UNL     1       3.346  -4.486   5.542  0.00  0.00    +0.175 C 
ATOM      2  C   UNL     1       4.492  -5.321   5.017  0.00  0.00    +0.041 C 
ATOM      3  C   UNL     1       4.434  -6.669   4.965  0.00  0.00    +0.020 C 
ATOM      4  C   UNL     1       5.595  -7.478   4.437  0.00  0.00    +0.058 C 
ATOM      5  C   UNL     1       6.343  -6.671   3.374  0.00  0.00    -0.023 C 
ATOM      6  C   UNL     1       6.823  -5.362   4.011  0.00  0.00    +0.086 C 
ATOM      7  C   UNL     1       5.637  -4.632   4.577  0.00  0.00    +0.164 C 
ATOM      8  O   UNL     1       5.668  -3.420   4.655  0.00  0.00    -0.292 OA
ATOM      9  C   UNL     1       7.546  -7.471   2.871  0.00  0.00    +0.011 C 
ATOM     10  C   UNL     1       5.404  -6.361   2.206  0.00  0.00    +0.011 C 
ATOM     11  N   UNL     1       3.327  -7.362   5.394  0.00  0.00    -0.287 N 
ATOM     12  C   UNL     1       2.393  -6.687   6.162  0.00  0.00    +0.219 A 
ATOM     13  N   UNL     1       2.393  -5.336   6.244  0.00  0.00    -0.220 N 
ATOM     14  N   UNL     1       1.342  -4.991   7.093  0.00  0.00    -0.141 NA
ATOM     15  C   UNL     1       0.772  -6.117   7.465  0.00  0.00    +0.211 A 
ATOM     16  N   UNL     1       1.414  -7.140   6.896  0.00  0.00    -0.187 NA
ATOM     17  H   UNL     1       3.204  -8.297   5.166  0.00  0.00    +0.155 HD
ENDROOT
BRANCH   1  21
ATOM     18  C   UNL     1       1.385  -2.554   2.273  0.00  0.00    +0.121 A 
ATOM     19  C   UNL     1       1.962  -1.797   3.283  0.00  0.00    +0.046 A 
ATOM     20  C   UNL     1       2.595  -2.424   4.339  0.00  0.00    +0.009 A 
ATOM     21  C   UNL     1       2.654  -3.804   4.389  0.00  0.00    -0.018 A 
ATOM     22  C   UNL     1       2.081  -4.561   3.384  0.00  0.00    +0.009 A 
ATOM     23  C   UNL     1       1.442  -3.939   2.329  0.00  0.00    +0.046 A 
BRANCH  18  24
ATOM     24  O   UNL     1       0.761  -1.940   1.234  0.00  0.00    -0.492 OA
BRANCH  24  25
ATOM     25  C   UNL     1       0.742  -0.511   1.242  0.00  0.00    +0.229 C 
BRANCH  25  27
ATOM     26  C   UNL     1      -0.019   1.526   0.010  0.00  0.00    +0.007 C 
ATOM     27  C   UNL     1       0.002  -0.004   0.002  0.00  0.00    +0.038 C 
ENDBRANCH  25  27
ENDBRANCH  24  25
ENDBRANCH  18  24
ENDBRANCH   1  21
BRANCH  15  28
ATOM     28  S   UNL     1      -0.616  -6.254   8.543  0.00  0.00    -0.080 S 
BRANCH  28  29
ATOM     29  C   UNL     1      -0.910  -8.041   8.655  0.00  0.00    +0.114 C 
BRANCH  29  30
ATOM     30  C   UNL     1      -2.087  -8.300   9.560  0.00  0.00    -0.019 A 
ATOM     31  C   UNL     1      -1.890  -8.476  10.917  0.00  0.00    +0.006 A 
ATOM     32  C   UNL     1      -2.970  -8.714  11.747  0.00  0.00    +0.000 A 
ATOM     33  C   UNL     1      -4.246  -8.777  11.220  0.00  0.00    +0.001 A 
ATOM     34  C   UNL     1      -4.444  -8.601   9.864  0.00  0.00    +0.020 A 
ATOM     35  C   UNL     1      -3.365  -8.357   9.033  0.00  0.00    +0.045 A 
ATOM     36 CL   UNL     1      -3.613  -8.131   7.330  0.00  0.00    -0.083 Cl
ENDBRANCH  29  30
ENDBRANCH  28  29
ENDBRANCH  15  28
TORSDOF 7
