REMARK  Name = ZINC64663408
REMARK  7 active torsions:
REMARK  status: ('A' for Active; 'I' for Inactive)
REMARK    1  A    between atoms: C_4  and  C_7
REMARK    2  A    between atoms: C_7  and  N_8
REMARK    3  A    between atoms: C_17  and  C_19
REMARK    4  A    between atoms: C_19  and  C_20
REMARK    5  A    between atoms: N_22  and  C_23
REMARK    6  A    between atoms: C_23  and  C_24
REMARK    7  A    between atoms: C_24  and  C_25
REMARK                            x       y       z     vdW  Elec       q    Type
REMARK                         _______ _______ _______ _____ _____    ______ ____
ROOT
ATOM      1  N   UNL     1       4.704  -0.804   1.573  0.00  0.00    -0.316 N 
ATOM      2  C   UNL     1       5.619  -0.195   2.446  0.00  0.00    +0.073 A 
ATOM      3  C   UNL     1       6.582   0.670   1.951  0.00  0.00    +0.027 A 
ATOM      4  C   UNL     1       7.479   1.270   2.815  0.00  0.00    +0.002 A 
ATOM      5  C   UNL     1       7.415   1.008   4.171  0.00  0.00    +0.004 A 
ATOM      6  C   UNL     1       6.458   0.144   4.670  0.00  0.00    +0.047 A 
ATOM      7  C   UNL     1       5.555  -0.463   3.811  0.00  0.00    +0.142 A 
ATOM      8  O   UNL     1       4.621  -1.316   4.309  0.00  0.00    -0.488 OA
ATOM      9  C   UNL     1       3.464  -1.577   3.511  0.00  0.00    +0.252 C 
ATOM     10  C   UNL     1       3.911  -1.932   2.090  0.00  0.00    +0.120 C 
ENDROOT
BRANCH   1  11
ATOM     11  C   UNL     1       4.540  -0.331   0.196  0.00  0.00    +0.140 C 
BRANCH  11  15
ATOM     12  C   UNL     1       1.828   2.969   0.137  0.00  0.00    +0.000 A 
ATOM     13  C   UNL     1       3.182   3.191   0.298  0.00  0.00    +0.000 A 
ATOM     14  C   UNL     1       4.060   2.123   0.318  0.00  0.00    +0.005 A 
ATOM     15  C   UNL     1       3.583   0.833   0.176  0.00  0.00    -0.030 A 
ATOM     16  C   UNL     1       2.228   0.611   0.015  0.00  0.00    +0.005 A 
ATOM     17  C   UNL     1       1.351   1.679  -0.005  0.00  0.00    +0.000 A 
ENDBRANCH  11  15
ENDBRANCH   1  11
BRANCH  10  18
ATOM     18  C   UNL     1       4.768  -3.199   2.121  0.00  0.00    +0.121 C 
BRANCH  18  19
ATOM     19  C   UNL     1       5.101  -3.615   0.712  0.00  0.00    +0.215 C 
ATOM     20  O   UNL     1       4.591  -3.040  -0.227  0.00  0.00    -0.276 OA
ATOM     21  N   UNL     1       5.967  -4.625   0.494  0.00  0.00    -0.315 N 
ATOM     22  H   UNL     1       6.375  -5.084   1.244  0.00  0.00    +0.149 HD
BRANCH  21  23
ATOM     23  C   UNL     1       6.291  -5.029  -0.876  0.00  0.00    +0.108 C 
BRANCH  23  24
ATOM     24  C   UNL     1       7.289  -6.188  -0.844  0.00  0.00    +0.049 C 
BRANCH  24  25
ATOM     25  C   UNL     1       7.623  -6.604  -2.253  0.00  0.00    -0.072 C 
ATOM     26  C   UNL     1       8.684  -6.103  -2.799  0.00  0.00    -0.028 C 
ATOM     27  C   UNL     1       9.138  -6.413  -4.195  0.00  0.00    +0.027 C 
ATOM     28  C   UNL     1       8.448  -7.680  -4.704  0.00  0.00    +0.004 C 
ATOM     29  C   UNL     1       6.942  -7.549  -4.448  0.00  0.00    +0.005 C 
ATOM     30  C   UNL     1       6.707  -7.578  -2.935  0.00  0.00    +0.030 C 
ENDBRANCH  24  25
ENDBRANCH  23  24
ENDBRANCH  21  23
ENDBRANCH  18  19
ENDBRANCH  10  18
TORSDOF 7
