REMARK  Name = ZINC01123697
REMARK  7 active torsions:
REMARK  status: ('A' for Active; 'I' for Inactive)
REMARK    1  A    between atoms: C_1  and  C_2
REMARK    2  A    between atoms: C_5  and  O_27
REMARK    3  A    between atoms: C_6  and  N_8
REMARK    4  A    between atoms: N_8  and  C_9
REMARK    5  A    between atoms: C_9  and  N_11
REMARK    6  A    between atoms: C_12  and  C_14
REMARK    7  A    between atoms: C_17  and  C_19
REMARK                            x       y       z     vdW  Elec       q    Type
REMARK                         _______ _______ _______ _____ _____    ______ ____
ROOT
ATOM      1  N   UNL     1       0.138   0.023  -4.747  0.00  0.00    -0.261 N 
ATOM      2  C   UNL     1       0.232  -0.643  -5.915  0.00  0.00    +0.285 C 
ATOM      3  O   UNL     1       0.248  -1.860  -5.922  0.00  0.00    -0.266 OA
ATOM      4  H   UNL     1       0.125   0.993  -4.741  0.00  0.00    +0.157 HD
ENDROOT
BRANCH   2   5
ATOM      5  C   UNL     1       0.315   0.098  -7.174  0.00  0.00    +0.190 A 
ATOM      6  C   UNL     1       0.420  -0.455  -8.433  0.00  0.00    +0.055 A 
ATOM      7  C   UNL     1       0.467   0.609  -9.338  0.00  0.00    +0.051 A 
ATOM      8  C   UNL     1       0.399   1.761  -8.608  0.00  0.00    +0.137 A 
ATOM      9  O   UNL     1       0.307   1.441  -7.306  0.00  0.00    -0.450 OA
BRANCH   8  10
ATOM     10  C   UNL     1       0.422   3.131  -9.158  0.00  0.00    +0.036 A 
ATOM     11  C   UNL     1       1.416   3.506 -10.065  0.00  0.00    +0.014 A 
ATOM     12  C   UNL     1       1.429   4.785 -10.579  0.00  0.00    +0.021 A 
ATOM     13  C   UNL     1       0.466   5.702 -10.190  0.00  0.00    +0.042 A 
ATOM     14  C   UNL     1      -0.519   5.339  -9.287  0.00  0.00    +0.040 A 
ATOM     15  C   UNL     1      -0.547   4.060  -8.769  0.00  0.00    +0.053 A 
ATOM     16 CL   UNL     1      -1.782   3.607  -7.636  0.00  0.00    -0.083 Cl
ATOM     17 CL   UNL     1       0.493   7.312 -10.838  0.00  0.00    -0.083 Cl
ENDBRANCH   8  10
ENDBRANCH   2   5
BRANCH   1  18
ATOM     18  C   UNL     1       0.062  -0.658  -3.586  0.00  0.00    +0.141 C 
ATOM     19  S   UNL     1       0.085  -2.370  -3.596  0.00  0.00    -0.018 S 
BRANCH  18  20
ATOM     20  N   UNL     1      -0.032   0.007  -2.418  0.00  0.00    -0.294 N 
ATOM     21  H   UNL     1      -0.125   0.973  -2.417  0.00  0.00    +0.154 HD
BRANCH  20  27
ATOM     22  C   UNL     1       1.979  -3.497   0.384  0.00  0.00    +0.044 C 
ATOM     23  C   UNL     1       0.968  -2.398   0.179  0.00  0.00    -0.048 A 
ATOM     24  C   UNL     1       0.073  -2.088   1.187  0.00  0.00    +0.007 A 
ATOM     25  C   UNL     1      -0.858  -1.081   1.004  0.00  0.00    +0.047 A 
ATOM     26  C   UNL     1      -0.894  -0.380  -0.190  0.00  0.00    +0.138 A 
ATOM     27  C   UNL     1       0.004  -0.695  -1.207  0.00  0.00    +0.075 A 
ATOM     28  C   UNL     1       0.938  -1.703  -1.015  0.00  0.00    +0.030 A 
BRANCH  26  29
ATOM     29  O   UNL     1      -1.809   0.610  -0.371  0.00  0.00    -0.505 OA
ATOM     30  H   UNL     1      -1.502   1.484  -0.096  0.00  0.00    +0.292 HD
ENDBRANCH  26  29
ENDBRANCH  20  27
ENDBRANCH  18  20
ENDBRANCH   1  18
TORSDOF 6
