REMARK  Name = ZINC43288433
REMARK  7 active torsions:
REMARK  status: ('A' for Active; 'I' for Inactive)
REMARK    1  A    between atoms: C_1  and  C_2
REMARK    2  A    between atoms: C_2  and  C_22
REMARK    3  A    between atoms: C_8  and  O_11
REMARK    4  A    between atoms: O_11  and  C_12
REMARK    5  A    between atoms: C_12  and  C_14
REMARK    6  A    between atoms: C_12  and  C_16
REMARK    7  A    between atoms: C_14  and  N_15
REMARK                            x       y       z     vdW  Elec       q    Type
REMARK                         _______ _______ _______ _____ _____    ______ ____
ROOT
ATOM      1  O   UNL     1       1.785  -2.597   2.936  0.00  0.00    -0.482 OA
ENDROOT
BRANCH   1   9
ATOM      2  C   UNL     1      -0.012   1.564   0.062  0.00  0.00    +0.056 C 
ATOM      3  C   UNL     1      -0.027   0.034   0.054  0.00  0.00    +0.109 C 
ATOM      4  C   UNL     1      -1.466  -0.501   0.241  0.00  0.00    +0.086 C 
ATOM      5  C   UNL     1      -1.234  -1.735   1.091  0.00  0.00    +0.002 A 
ATOM      6  C   UNL     1      -2.036  -2.816   1.389  0.00  0.00    +0.007 A 
ATOM      7  C   UNL     1      -1.560  -3.828   2.204  0.00  0.00    +0.004 A 
ATOM      8  C   UNL     1      -0.279  -3.751   2.719  0.00  0.00    +0.049 A 
ATOM      9  C   UNL     1       0.527  -2.666   2.425  0.00  0.00    +0.163 A 
ATOM     10  C   UNL     1       0.050  -1.639   1.605  0.00  0.00    +0.166 A 
ATOM     11  O   UNL     1       0.657  -0.487   1.206  0.00  0.00    -0.482 OA
ATOM     12  C   UNL     1       0.594  -0.506  -1.235  0.00  0.00    +0.056 C 
ENDBRANCH   1   9
BRANCH   1  13
ATOM     13  C   UNL     1       2.165  -3.615   3.864  0.00  0.00    +0.193 C 
BRANCH  13  14
ATOM     14  C   UNL     1       3.027  -3.014   4.944  0.00  0.00    +0.029 A 
ATOM     15  C   UNL     1       3.095  -3.334   6.259  0.00  0.00    +0.030 A 
ATOM     16  C   UNL     1       3.970  -2.640   7.074  0.00  0.00    +0.025 A 
ATOM     17  C   UNL     1       4.734  -1.659   6.533  0.00  0.00    +0.060 A 
ATOM     18  S   UNL     1       4.229  -1.700   4.821  0.00  0.00    -0.097 S 
ATOM     19 BR   UNL     1       4.098  -3.052   8.915  0.00  0.00    -0.050 Br
ENDBRANCH  13  14
BRANCH  13  20
ATOM     20  C   UNL     1       2.950  -4.705   3.132  0.00  0.00    -0.036 C 
BRANCH  20  21
ATOM     21  N   UNL     1       2.110  -5.291   2.079  0.00  0.00    +0.381 N 
ATOM     22  H   UNL     1       1.283  -5.694   2.494  0.00  0.00    -0.090 HD
ATOM     23  H   UNL     1       1.842  -4.572   1.424  0.00  0.00    -0.090 HD
ATOM     24  H   UNL     1       2.628  -6.010   1.597  0.00  0.00    -0.090 HD
ENDBRANCH  20  21
ENDBRANCH  13  20
ENDBRANCH   1  13
TORSDOF 5
