REMARK  Name = ZINC08495738
REMARK  5 active torsions:
REMARK  status: ('A' for Active; 'I' for Inactive)
REMARK    1  A    between atoms: C_4  and  C_7
REMARK    2  A    between atoms: C_7  and  O_9
REMARK    3  A    between atoms: O_9  and  C_10
REMARK    4  A    between atoms: C_13  and  C_17
REMARK    5  A    between atoms: C_27  and  C_29
REMARK                            x       y       z     vdW  Elec       q    Type
REMARK                         _______ _______ _______ _____ _____    ______ ____
ROOT
ATOM      1  C   UNL     1       9.771  -2.650   0.139  0.00  0.00    +0.024 C 
ATOM      2  C   UNL     1      10.934  -1.935   0.320  0.00  0.00    +0.081 C 
ATOM      3  C   UNL     1      12.252  -2.610   0.490  0.00  0.00    +0.152 C 
ATOM      4  N   UNL     1      12.560  -3.738  -0.092  0.00  0.00    -0.283 NA
ATOM      5  N   UNL     1      13.136  -1.914   1.337  0.00  0.00    -0.152 N 
ATOM      6  C   UNL     1      12.924  -0.563   1.509  0.00  0.00    +0.181 C 
ATOM      7  N   UNL     1      11.937   0.157   1.036  0.00  0.00    -0.152 NA
ATOM      8  C   UNL     1      10.941  -0.451   0.362  0.00  0.00    +0.273 C 
ATOM      9  O   UNL     1      10.072   0.198  -0.196  0.00  0.00    -0.268 OA
ATOM     10  S   UNL     1      14.301  -0.096   2.524  0.00  0.00    -0.038 S 
ATOM     11  C   UNL     1      15.027  -1.720   2.697  0.00  0.00    +0.103 C 
ATOM     12  N   UNL     1      14.221  -2.460   1.990  0.00  0.00    -0.169 NA
ATOM     13  H   UNL     1      13.433  -4.135   0.053  0.00  0.00    +0.188 HD
ENDROOT
BRANCH   1  17
ATOM     14  C   UNL     1       6.029  -0.661   0.216  0.00  0.00    +0.150 A 
ATOM     15  C   UNL     1       7.058  -0.234   1.048  0.00  0.00    +0.048 A 
ATOM     16  C   UNL     1       8.275  -0.875   1.027  0.00  0.00    +0.011 A 
ATOM     17  C   UNL     1       8.477  -1.962   0.165  0.00  0.00    -0.023 A 
ATOM     18  C   UNL     1       7.437  -2.389  -0.672  0.00  0.00    +0.031 A 
ATOM     19  C   UNL     1       6.221  -1.743  -0.638  0.00  0.00    +0.084 A 
ATOM     20 CL   UNL     1       4.929  -2.275  -1.668  0.00  0.00    -0.080 Cl
BRANCH  14  21
ATOM     21  O   UNL     1       4.831  -0.024   0.241  0.00  0.00    -0.421 OA
BRANCH  21  22
ATOM     22  C   UNL     1       3.880  -0.541   1.045  0.00  0.00    +0.344 C 
ATOM     23  O   UNL     1       4.084  -1.583   1.634  0.00  0.00    -0.245 OA
BRANCH  22  27
ATOM     24  C   UNL     1       0.174   1.477   1.517  0.00  0.00    +0.000 A 
ATOM     25  C   UNL     1       1.147   2.010   0.691  0.00  0.00    +0.001 A 
ATOM     26  C   UNL     1       2.354   1.359   0.533  0.00  0.00    +0.015 A 
ATOM     27  C   UNL     1       2.591   0.161   1.209  0.00  0.00    +0.059 A 
ATOM     28  C   UNL     1       1.604  -0.371   2.041  0.00  0.00    +0.015 A 
ATOM     29  C   UNL     1       0.402   0.289   2.190  0.00  0.00    +0.001 A 
ENDBRANCH  22  27
ENDBRANCH  21  22
ENDBRANCH  14  21
ENDBRANCH   1  17
BRANCH  11  30
ATOM     30  C   UNL     1      16.257  -2.130   3.464  0.00  0.00    +0.046 C 
ATOM     31  C   UNL     1      16.837  -3.408   2.855  0.00  0.00    +0.010 C 
ATOM     32  C   UNL     1      18.086  -3.823   3.635  0.00  0.00    +0.001 C 
ATOM     33  C   UNL     1      17.713  -4.079   5.097  0.00  0.00    +0.000 C 
ATOM     34  C   UNL     1      17.134  -2.800   5.706  0.00  0.00    +0.001 C 
ATOM     35  C   UNL     1      15.885  -2.385   4.926  0.00  0.00    +0.010 C 
ENDBRANCH  11  30
TORSDOF 5
