REMARK  Name = ZINC12833288
REMARK  11 active torsions:
REMARK  status: ('A' for Active; 'I' for Inactive)
REMARK    1  A    between atoms: C_1  and  C_2
REMARK    2  A    between atoms: C_4  and  C_35
REMARK    3  A    between atoms: C_7  and  C_14
REMARK    4  A    between atoms: C_14  and  N_67
REMARK    5  A    between atoms: C_15  and  C_16
REMARK    6  A    between atoms: C_15  and  N_67
REMARK    7  A    between atoms: N_20  and  C_21
REMARK    8  A    between atoms: C_21  and  C_22
REMARK    9  A    between atoms: C_25  and  O_28
REMARK   10  A    between atoms: O_28  and  C_29
REMARK   11  A    between atoms: C_30  and  N_67
REMARK                            x       y       z     vdW  Elec       q    Type
REMARK                         _______ _______ _______ _____ _____    ______ ____
ROOT
ATOM      1  N   UNL     1      -0.804   1.349  -1.072  0.00  0.00    +0.389 N 
ATOM      2  H   UNL     1      -1.624   0.824  -0.745  0.00  0.00    -0.080 HD
ENDROOT
BRANCH   1   3
ATOM      3  C   UNL     1      -1.080   2.796  -0.947  0.00  0.00    -0.068 C 
ATOM      4  C   UNL     1      -2.494   3.093  -1.488  0.00  0.00    -0.015 C 
ATOM      5  C   UNL     1      -2.355   4.474  -2.176  0.00  0.00    -0.002 C 
ATOM      6  C   UNL     1      -0.953   4.390  -2.830  0.00  0.00    -0.002 C 
ATOM      7  C   UNL     1      -0.101   3.621  -1.800  0.00  0.00    -0.015 C 
ENDBRANCH   1   3
BRANCH   1   8
ATOM      8  C   UNL     1       0.362   0.984  -0.240  0.00  0.00    -0.037 C 
BRANCH   8  15
ATOM      9  C   UNL     1      -1.794   1.041   7.438  0.00  0.00    +0.044 C 
ATOM     10  C   UNL     1      -1.450   0.805   5.990  0.00  0.00    -0.048 A 
ATOM     11  C   UNL     1      -1.641  -0.453   5.435  0.00  0.00    +0.007 A 
ATOM     12  C   UNL     1      -1.335  -0.688   4.124  0.00  0.00    -0.041 A 
ATOM     13  C   UNL     1      -0.825   0.349   3.335  0.00  0.00    +0.002 A 
ATOM     14  C   UNL     1      -0.487   0.132   1.927  0.00  0.00    +0.017 A 
ATOM     15  C   UNL     1       0.004   1.173   1.211  0.00  0.00    +0.001 A 
ATOM     16  C   UNL     1       0.186   2.433   1.821  0.00  0.00    +0.251 A 
ATOM     17  O   UNL     1       0.633   3.354   1.161  0.00  0.00    -0.268 OA
ATOM     18  N   UNL     1      -0.127   2.643   3.112  0.00  0.00    -0.322 N 
ATOM     19  H   UNL     1       0.006   3.522   3.499  0.00  0.00    +0.169 HD
ATOM     20  C   UNL     1      -0.631   1.625   3.894  0.00  0.00    +0.050 A 
ATOM     21  C   UNL     1      -0.950   1.841   5.231  0.00  0.00    +0.029 A 
ATOM     22  C   UNL     1      -1.546  -2.057   3.532  0.00  0.00    +0.044 C 
ENDBRANCH   8  15
ENDBRANCH   1   8
BRANCH   1  23
ATOM     23  C   UNL     1      -0.544   1.004  -2.486  0.00  0.00    +0.001 C 
BRANCH  23  24
ATOM     24  C   UNL     1      -1.823   1.166  -3.268  0.00  0.00    +0.135 A 
ATOM     25  N   UNL     1      -2.162   2.192  -4.009  0.00  0.00    -0.115 NA
ATOM     26  N   UNL     1      -3.324   1.953  -4.511  0.00  0.00    -0.023 NA
ATOM     27  N   UNL     1      -3.735   0.801  -4.109  0.00  0.00    -0.044 NA
ATOM     28  N   UNL     1      -2.835   0.282  -3.344  0.00  0.00    -0.227 N 
BRANCH  28  29
ATOM     29  C   UNL     1      -2.903  -1.023  -2.682  0.00  0.00    +0.182 C 
BRANCH  29  30
ATOM     30  C   UNL     1      -3.541  -0.864  -1.325  0.00  0.00    -0.026 A 
ATOM     31  C   UNL     1      -2.754  -0.607  -0.218  0.00  0.00    +0.009 A 
ATOM     32  C   UNL     1      -3.337  -0.456   1.025  0.00  0.00    +0.046 A 
ATOM     33  C   UNL     1      -4.712  -0.573   1.164  0.00  0.00    +0.120 A 
ATOM     34  C   UNL     1      -5.499  -0.837   0.052  0.00  0.00    +0.046 A 
ATOM     35  C   UNL     1      -4.912  -0.982  -1.190  0.00  0.00    +0.009 A 
BRANCH  33  36
ATOM     36  O   UNL     1      -5.288  -0.430   2.387  0.00  0.00    -0.495 OA
ATOM     37  C   UNL     1      -4.416  -0.160   3.486  0.00  0.00    +0.277 C 
ENDBRANCH  33  36
ENDBRANCH  29  30
ENDBRANCH  28  29
ENDBRANCH  23  24
ENDBRANCH   1  23
TORSDOF 8
