REMARK  Name = ZINC35374780
REMARK  7 active torsions:
REMARK  status: ('A' for Active; 'I' for Inactive)
REMARK    1  A    between atoms: C_1  and  C_2
REMARK    2  A    between atoms: C_2  and  C_3
REMARK    3  A    between atoms: C_3  and  C_5
REMARK    4  A    between atoms: C_3  and  C_6
REMARK    5  A    between atoms: C_6  and  N_7
REMARK    6  A    between atoms: C_8  and  C_10
REMARK    7  A    between atoms: C_21  and  C_23
REMARK                            x       y       z     vdW  Elec       q    Type
REMARK                         _______ _______ _______ _____ _____    ______ ____
ROOT
ATOM      1  C   UNL     1      -4.434  -4.387  -0.472  0.00  0.00    +0.028 C 
ATOM      2  C   UNL     1      -5.106  -3.761  -1.730  0.00  0.00    +0.061 C 
ATOM      3  S   UNL     1      -6.446  -5.013  -1.975  0.00  0.00    -0.174 S 
ATOM      4  C   UNL     1      -5.532  -6.459  -1.302  0.00  0.00    -0.016 C 
ATOM      5  N   UNL     1      -4.412  -5.850  -0.568  0.00  0.00    +0.397 N 
ATOM      6  C   UNL     1      -5.029  -7.323  -2.450  0.00  0.00    +0.017 C 
ATOM      7  C   UNL     1      -4.251  -8.519  -1.887  0.00  0.00    +0.107 C 
ATOM      8  N   UNL     1      -5.098  -9.212  -0.906  0.00  0.00    -0.301 N 
ATOM      9  C   UNL     1      -5.670  -8.441   0.206  0.00  0.00    +0.107 C 
ATOM     10  C   UNL     1      -6.440  -7.246  -0.368  0.00  0.00    +0.017 C 
ATOM     11  C   UNL     1      -5.345 -10.531  -1.025  0.00  0.00    +0.219 C 
ATOM     12  O   UNL     1      -4.868 -11.157  -1.947  0.00  0.00    -0.275 OA
ATOM     13  H   UNL     1      -3.552  -6.123  -1.020  0.00  0.00    -0.083 HD
ATOM     14  H   UNL     1      -4.408  -6.227   0.368  0.00  0.00    -0.083 HD
ENDROOT
BRANCH  11  15
ATOM     15  C   UNL     1      -6.215 -11.229  -0.011  0.00  0.00    +0.075 C 
ATOM     16  C   UNL     1      -5.559 -11.162   1.384  0.00  0.00    +0.013 C 
ATOM     17  C   UNL     1      -5.887 -12.534   2.024  0.00  0.00    +0.001 C 
ATOM     18  C   UNL     1      -5.762 -13.509   0.827  0.00  0.00    +0.001 C 
ATOM     19  C   UNL     1      -6.344 -12.721  -0.365  0.00  0.00    +0.013 C 
ENDBRANCH  11  15
BRANCH   1  21
ATOM     20  N   UNL     1      -2.790  -2.554  -0.231  0.00  0.00    -0.316 N 
ATOM     21  C   UNL     1      -3.020  -3.876  -0.359  0.00  0.00    +0.200 C 
ATOM     22  O   UNL     1      -2.091  -4.654  -0.383  0.00  0.00    -0.278 OA
ATOM     23  H   UNL     1      -3.533  -1.932  -0.211  0.00  0.00    +0.149 HD
BRANCH  20  24
ATOM     24  C   UNL     1      -1.416  -2.058  -0.121  0.00  0.00    +0.107 C 
BRANCH  24  25
ATOM     25  C   UNL     1      -1.433  -0.534   0.013  0.00  0.00    +0.003 C 
ATOM     26  C   UNL     1      -2.110  -0.145   1.329  0.00  0.00    +0.009 C 
BRANCH  25  28
ATOM     27  C   UNL     1      -0.019   1.526   0.010  0.00  0.00    +0.004 C 
ATOM     28  C   UNL     1       0.002  -0.004   0.002  0.00  0.00    +0.001 C 
ENDBRANCH  25  28
ENDBRANCH  24  25
ENDBRANCH  20  24
ENDBRANCH   1  21
TORSDOF 5
