REMARK  Name = ZINC16719267
REMARK  8 active torsions:
REMARK  status: ('A' for Active; 'I' for Inactive)
REMARK    1  A    between atoms: C_1  and  C_2
REMARK    2  A    between atoms: C_3  and  C_14
REMARK    3  A    between atoms: N_7  and  C_8
REMARK    4  A    between atoms: C_8  and  N_10
REMARK    5  A    between atoms: N_10  and  C_11
REMARK    6  A    between atoms: C_11  and  C_12
REMARK    7  A    between atoms: C_19  and  O_20
REMARK    8  A    between atoms: O_20  and  C_21
REMARK                            x       y       z     vdW  Elec       q    Type
REMARK                         _______ _______ _______ _____ _____    ______ ____
ROOT
ATOM      1  C   UNL     1       0.086  -0.001   0.084  0.00  0.00    +0.054 C 
ATOM      2  C   UNL     1       0.020   1.504   0.048  0.00  0.00    +0.016 A 
ATOM      3  C   UNL     1      -1.070   2.329   0.020  0.00  0.00    +0.087 A 
ATOM      4  N   UNL     1      -0.891   3.641  -0.006  0.00  0.00    -0.224 NA
ATOM      5  C   UNL     1       0.319   4.168  -0.016  0.00  0.00    +0.164 A 
ATOM      6  S   UNL     1       1.345   2.705   0.021  0.00  0.00    -0.057 S 
ATOM      7  N   UNL     1       0.696   5.505  -0.048  0.00  0.00    -0.276 N 
ATOM      8  H   UNL     1      -0.072   6.292  -0.069  0.00  0.00    +0.156 HD
ENDROOT
BRANCH   3   9
ATOM      9  C   UNL     1      -2.439   1.760   0.023  0.00  0.00    +0.043 A 
ATOM     10  C   UNL     1      -2.786   0.776   0.946  0.00  0.00    +0.013 A 
ATOM     11  C   UNL     1      -4.062   0.249   0.945  0.00  0.00    +0.001 A 
ATOM     12  C   UNL     1      -4.999   0.695   0.029  0.00  0.00    +0.004 A 
ATOM     13  C   UNL     1      -4.665   1.671  -0.891  0.00  0.00    +0.046 A 
ATOM     14  C   UNL     1      -3.390   2.212  -0.897  0.00  0.00    +0.136 A 
BRANCH  14  15
ATOM     15  O   UNL     1      -3.062   3.175  -1.798  0.00  0.00    -0.434 OA
BRANCH  15  16
ATOM     16  C   UNL     1      -4.085   3.588  -2.707  0.00  0.00    +0.541 C 
ATOM     17  F   UNL     1      -4.504   2.490  -3.467  0.00  0.00    -0.166 F 
ATOM     18  F   UNL     1      -5.170   4.099  -1.988  0.00  0.00    -0.166 F 
ENDBRANCH  15  16
ENDBRANCH  14  15
ENDBRANCH   3   9
BRANCH   7  19
ATOM     19  C   UNL     1       2.002   5.837  -0.054  0.00  0.00    +0.136 C 
ATOM     20  S   UNL     1       3.197   4.611  -0.022  0.00  0.00    -0.019 S 
BRANCH  19  21
ATOM     21  N   UNL     1       2.368   7.134  -0.086  0.00  0.00    -0.323 N 
ATOM     22  H   UNL     1       1.600   7.921  -0.106  0.00  0.00    +0.148 HD
BRANCH  21  23
ATOM     23  C   UNL     1       3.787   7.495  -0.092  0.00  0.00    +0.130 C 
BRANCH  23  24
ATOM     24  C   UNL     1       3.924   8.995  -0.129  0.00  0.00    -0.016 C 
ATOM     25  C   UNL     1       4.630   9.611   0.787  0.00  0.00    +0.005 C 
ENDBRANCH  23  24
ENDBRANCH  21  23
ENDBRANCH  19  21
ENDBRANCH   7  19
TORSDOF 7
