REMARK  Name = ZINC19107069
REMARK  3 active torsions:
REMARK  status: ('A' for Active; 'I' for Inactive)
REMARK    1  A    between atoms: C_5  and  N_7
REMARK    2  A    between atoms: C_8  and  C_10
REMARK    3  A    between atoms: C_10  and  N_11
REMARK                            x       y       z     vdW  Elec       q    Type
REMARK                         _______ _______ _______ _____ _____    ______ ____
ROOT
ATOM      1  C   UNL     1      -4.777   5.355  -1.753  0.00  0.00    +0.214 C 
ENDROOT
BRANCH   1   2
ATOM      2  N   UNL     1      -3.753   4.479  -1.179  0.00  0.00    -0.215 N 
ATOM      3  C   UNL     1      -2.461   4.827  -1.021  0.00  0.00    +0.247 C 
ATOM      4  O   UNL     1      -1.945   5.884  -1.315  0.00  0.00    -0.273 OA
ATOM      5  C   UNL     1      -1.786   3.622  -0.399  0.00  0.00    +0.113 C 
ATOM      6  C   UNL     1      -0.698   3.092  -1.292  0.00  0.00    +0.035 C 
ATOM      7  C   UNL     1      -0.690   1.552  -1.194  0.00  0.00    +0.003 C 
ATOM      8  C   UNL     1      -0.018   1.079   0.008  0.00  0.00    +0.000 C 
ATOM      9  C   UNL     1      -0.716   1.552   1.298  0.00  0.00    +0.000 C 
ATOM     10  C   UNL     1      -0.289   2.969   1.578  0.00  0.00    +0.003 C 
ATOM     11  C   UNL     1      -1.281   3.999   1.007  0.00  0.00    +0.035 C 
ATOM     12  N   UNL     1      -2.877   2.642  -0.264  0.00  0.00    -0.285 N 
ATOM     13  C   UNL     1      -3.985   3.234  -0.746  0.00  0.00    +0.310 C 
ATOM     14  O   UNL     1      -5.075   2.698  -0.785  0.00  0.00    -0.252 OA
ATOM     15  H   UNL     1      -2.810   1.746   0.100  0.00  0.00    +0.151 HD
ENDBRANCH   1   2
BRANCH   1  17
ATOM     16  N   UNL     1      -5.710   5.855  -3.989  0.00  0.00    -0.282 N 
ATOM     17  C   UNL     1      -4.834   5.150  -3.245  0.00  0.00    +0.235 C 
ATOM     18  O   UNL     1      -4.092   4.351  -3.776  0.00  0.00    -0.274 OA
ATOM     19  H   UNL     1      -6.348   6.445  -3.558  0.00  0.00    +0.155 HD
BRANCH  16  24
ATOM     20  C   UNL     1      -5.385   4.389  -7.345  0.00  0.00    +0.004 A 
ATOM     21  C   UNL     1      -5.656   5.423  -8.177  0.00  0.00    +0.031 A 
ATOM     22  C   UNL     1      -5.971   6.702  -7.646  0.00  0.00    +0.102 A 
ATOM     23  C   UNL     1      -5.998   6.865  -6.196  0.00  0.00    +0.121 A 
ATOM     24  C   UNL     1      -5.698   5.736  -5.380  0.00  0.00    +0.062 A 
ATOM     25  C   UNL     1      -5.405   4.540  -5.960  0.00  0.00    +0.025 A 
ATOM     26  N   UNL     1      -6.312   8.108  -5.838  0.00  0.00    -0.189 NA
ATOM     27  S   UNL     1      -6.534   8.904  -7.169  0.00  0.00    +0.117 S 
ATOM     28  N   UNL     1      -6.264   7.834  -8.282  0.00  0.00    -0.191 NA
ENDBRANCH  16  24
ENDBRANCH   1  17
TORSDOF 3
