REMARK  Name = ZINC03125385
REMARK  10 active torsions:
REMARK  status: ('A' for Active; 'I' for Inactive)
REMARK    1  A    between atoms: C_1  and  N_2
REMARK    2  A    between atoms: C_3  and  C_16
REMARK    3  A    between atoms: C_6  and  S_7
REMARK    4  A    between atoms: S_7  and  C_8
REMARK    5  A    between atoms: C_8  and  C_9
REMARK    6  A    between atoms: C_16  and  C_18
REMARK    7  A    between atoms: C_16  and  N_25
REMARK    8  A    between atoms: C_18  and  C_19
REMARK    9  A    between atoms: N_25  and  S_26
REMARK   10  A    between atoms: S_26  and  C_29
REMARK                            x       y       z     vdW  Elec       q    Type
REMARK                         _______ _______ _______ _____ _____    ______ ____
ROOT
ATOM      1  C   UNL     1       1.286  -8.061  -2.327  0.00  0.00    +0.148 C 
ENDROOT
BRANCH   1   4
ATOM      2  C   UNL     1       1.233  -5.313  -3.857  0.00  0.00    +0.152 C 
ATOM      3  N   UNL     1       1.250  -5.497  -2.403  0.00  0.00    -0.308 N 
ATOM      4  C   UNL     1       1.273  -6.681  -1.721  0.00  0.00    +0.153 A 
ATOM      5  N   UNL     1       1.281  -6.396  -0.449  0.00  0.00    -0.132 NA
ATOM      6  N   UNL     1       1.270  -5.122  -0.283  0.00  0.00    -0.122 NA
ATOM      7  C   UNL     1       1.246  -4.520  -1.449  0.00  0.00    +0.192 A 
BRANCH   7   8
ATOM      8  S   UNL     1       1.220  -2.781  -1.730  0.00  0.00    -0.081 S 
BRANCH   8   9
ATOM      9  C   UNL     1       1.228  -2.186  -0.020  0.00  0.00    +0.112 C 
BRANCH   9  10
ATOM     10  C   UNL     1       1.208  -0.679  -0.013  0.00  0.00    -0.037 A 
ATOM     11  C   UNL     1       0.002  -0.004   0.002  0.00  0.00    +0.005 A 
ATOM     12  C   UNL     1      -0.017   1.378   0.010  0.00  0.00    +0.015 A 
ATOM     13  C   UNL     1       1.172   2.086   0.002  0.00  0.00    +0.018 A 
ATOM     14  C   UNL     1       2.379   1.410  -0.013  0.00  0.00    +0.015 A 
ATOM     15  C   UNL     1       2.396   0.028  -0.021  0.00  0.00    +0.005 A 
ATOM     16 BR   UNL     1       1.147   3.976   0.013  0.00  0.00    -0.050 Br
ENDBRANCH   9  10
ENDBRANCH   8   9
ENDBRANCH   7   8
ENDBRANCH   1   4
BRANCH   1  17
ATOM     17  N   UNL     1       2.281  -8.887  -1.638  0.00  0.00    -0.179 NA
ATOM     18  H   UNL     1       2.433  -8.771  -0.688  0.00  0.00    +0.149 HD
BRANCH  17  19
ATOM     19  S   UNL     1       3.145 -10.019  -2.484  0.00  0.00    +0.059 S 
ATOM     20  O   UNL     1       4.033 -10.628  -1.557  0.00  0.00    -0.153 OA
ATOM     21  O   UNL     1       2.203 -10.768  -3.240  0.00  0.00    -0.153 OA
BRANCH  19  22
ATOM     22  C   UNL     1       4.146  -9.150  -3.644  0.00  0.00    +0.105 A 
ATOM     23  C   UNL     1       3.661  -8.881  -4.911  0.00  0.00    +0.030 A 
ATOM     24  C   UNL     1       4.444  -8.195  -5.820  0.00  0.00    +0.022 A 
ATOM     25  C   UNL     1       5.717  -7.786  -5.466  0.00  0.00    +0.041 A 
ATOM     26  C   UNL     1       6.204  -8.060  -4.200  0.00  0.00    +0.022 A 
ATOM     27  C   UNL     1       5.419  -8.742  -3.290  0.00  0.00    +0.030 A 
ATOM     28 CL   UNL     1       6.704  -6.929  -6.609  0.00  0.00    -0.084 Cl
ENDBRANCH  19  22
ENDBRANCH  17  19
ENDBRANCH   1  17
BRANCH   1  29
ATOM     29  C   UNL     1      -0.097  -8.697  -2.176  0.00  0.00    +0.063 C 
BRANCH  29  30
ATOM     30  C   UNL     1      -0.120 -10.025  -2.889  0.00  0.00    -0.045 A 
ATOM     31  C   UNL     1      -0.495 -10.089  -4.218  0.00  0.00    +0.004 A 
ATOM     32  C   UNL     1      -0.511 -11.307  -4.873  0.00  0.00    +0.000 A 
ATOM     33  C   UNL     1      -0.162 -12.460  -4.197  0.00  0.00    +0.000 A 
ATOM     34  C   UNL     1       0.208 -12.396  -2.866  0.00  0.00    +0.000 A 
ATOM     35  C   UNL     1       0.229 -11.178  -2.212  0.00  0.00    +0.004 A 
ENDBRANCH  29  30
ENDBRANCH   1  29
TORSDOF 9
