REMARK  Name = ZINC66705382
REMARK  9 active torsions:
REMARK  status: ('A' for Active; 'I' for Inactive)
REMARK    1  A    between atoms: C_1  and  C_2
REMARK    2  A    between atoms: C_2  and  C_3
REMARK    3  A    between atoms: C_2  and  C_4
REMARK    4  A    between atoms: C_4  and  C_5
REMARK    5  A    between atoms: C_5  and  C_7
REMARK    6  A    between atoms: C_5  and  N_24
REMARK    7  A    between atoms: C_13  and  C_16
REMARK    8  A    between atoms: C_25  and  O_27
REMARK    9  A    between atoms: O_27  and  C_28
REMARK                            x       y       z     vdW  Elec       q    Type
REMARK                         _______ _______ _______ _____ _____    ______ ____
ROOT
ATOM      1  C   UNL     1       2.927  -0.536  -2.436  0.00  0.00    +0.236 C 
ATOM      2  O   UNL     1       3.820  -1.351  -2.336  0.00  0.00    -0.274 OA
ATOM      3  N   UNL     1       2.598  -0.042  -3.646  0.00  0.00    -0.295 N 
ATOM      4  C   UNL     1       1.601   1.031  -3.781  0.00  0.00    +0.136 C 
ATOM      5  C   UNL     1       2.201   2.142  -4.651  0.00  0.00    +0.179 C 
ATOM      6  O   UNL     1       2.690   1.574  -5.868  0.00  0.00    -0.369 OA
ATOM      7  C   UNL     1       3.746   0.627  -5.689  0.00  0.00    +0.166 C 
ATOM      8  C   UNL     1       3.230  -0.557  -4.872  0.00  0.00    +0.144 C 
ENDROOT
BRANCH   7   9
ATOM      9  C   UNL     1       4.223   0.143  -7.034  0.00  0.00    -0.015 A 
ATOM     10  C   UNL     1       3.323  -0.004  -8.073  0.00  0.00    +0.009 A 
ATOM     11  C   UNL     1       3.758  -0.447  -9.308  0.00  0.00    +0.041 A 
ATOM     12  C   UNL     1       5.096  -0.743  -9.506  0.00  0.00    +0.158 A 
ATOM     13  C   UNL     1       5.998  -0.595  -8.464  0.00  0.00    +0.159 A 
ATOM     14  C   UNL     1       5.560  -0.146  -7.230  0.00  0.00    +0.047 A 
ATOM     15  F   UNL     1       7.304  -0.884  -8.654  0.00  0.00    -0.202 F 
ATOM     16  F   UNL     1       5.521  -1.177 -10.713  0.00  0.00    -0.202 F 
ENDBRANCH   7   9
BRANCH   1  17
ATOM     17  C   UNL     1       2.186  -0.075  -1.208  0.00  0.00    +0.162 C 
BRANCH  17  18
ATOM     18  N   UNL     1       2.970  -0.399  -0.013  0.00  0.00    -0.270 N 
ATOM     19  C   UNL     1       2.804   0.316   1.117  0.00  0.00    +0.401 C 
ATOM     20  O   UNL     1       2.003   1.230   1.145  0.00  0.00    -0.226 OA
ATOM     21  H   UNL     1       3.610  -1.128  -0.036  0.00  0.00    +0.153 HD
BRANCH  19  22
ATOM     22  O   UNL     1       3.525   0.019   2.214  0.00  0.00    -0.454 OA
ATOM     23  C   UNL     1       3.297   0.818   3.377  0.00  0.00    +0.282 C 
ENDBRANCH  19  22
ENDBRANCH  17  18
BRANCH  17  24
ATOM     24  C   UNL     1       0.831  -0.781  -1.135  0.00  0.00    +0.035 C 
BRANCH  24  26
ATOM     25  C   UNL     1      -0.313   1.272  -0.286  0.00  0.00    +0.007 C 
ATOM     26  C   UNL     1       0.010  -0.193   0.015  0.00  0.00    -0.015 C 
ATOM     27  C   UNL     1      -1.292  -0.982   0.168  0.00  0.00    +0.007 C 
ENDBRANCH  24  26
ENDBRANCH  17  24
ENDBRANCH   1  17
TORSDOF 6
