REMARK  Name = ZINC36643414
REMARK  11 active torsions:
REMARK  status: ('A' for Active; 'I' for Inactive)
REMARK    1  A    between atoms: C_1  and  C_2
REMARK    2  A    between atoms: N_11  and  C_12
REMARK    3  A    between atoms: C_12  and  C_13
REMARK    4  A    between atoms: C_13  and  C_14
REMARK    5  A    between atoms: C_14  and  N_15
REMARK    6  A    between atoms: N_15  and  C_16
REMARK    7  A    between atoms: N_15  and  C_17
REMARK    8  A    between atoms: C_18  and  C_20
REMARK    9  A    between atoms: C_23  and  S_26
REMARK   10  A    between atoms: S_26  and  N_29
REMARK   11  A    between atoms: C_34  and  C_36
REMARK                            x       y       z     vdW  Elec       q    Type
REMARK                         _______ _______ _______ _____ _____    ______ ____
ROOT
ATOM      1  C   UNL     1       0.420  -3.440   2.834  0.00  0.00    +0.046 C 
ATOM      2  C   UNL     1      -0.955  -2.845   2.672  0.00  0.00    -0.024 A 
ATOM      3  C   UNL     1      -1.749  -3.246   1.629  0.00  0.00    +0.005 A 
ATOM      4  C   UNL     1      -3.020  -2.724   1.443  0.00  0.00    +0.001 A 
ATOM      5  C   UNL     1      -3.500  -1.777   2.329  0.00  0.00    +0.017 A 
ATOM      6  C   UNL     1      -2.712  -1.369   3.377  0.00  0.00    +0.041 A 
ATOM      7  C   UNL     1      -1.415  -1.883   3.601  0.00  0.00    +0.083 A 
ATOM      8  N   UNL     1      -0.766  -1.386   4.676  0.00  0.00    -0.224 NA
ATOM      9  C   UNL     1      -1.302  -0.488   5.470  0.00  0.00    +0.168 A 
ATOM     10  S   UNL     1      -2.900  -0.218   4.717  0.00  0.00    -0.052 S 
ATOM     11  N   UNL     1      -0.762   0.106   6.598  0.00  0.00    -0.246 N 
ATOM     12  C   UNL     1      -0.311   1.375   6.541  0.00  0.00    +0.252 C 
ATOM     13  O   UNL     1       0.276   1.854   7.491  0.00  0.00    -0.270 OA
ENDROOT
BRANCH  12  14
ATOM     14  C   UNL     1      -0.531   2.183   5.324  0.00  0.00    +0.037 A 
ATOM     15  C   UNL     1      -0.564   1.569   4.071  0.00  0.00    +0.015 A 
ATOM     16  C   UNL     1      -0.769   2.330   2.938  0.00  0.00    +0.029 A 
ATOM     17  C   UNL     1      -0.944   3.698   3.043  0.00  0.00    +0.106 A 
ATOM     18  C   UNL     1      -0.913   4.313   4.282  0.00  0.00    +0.029 A 
ATOM     19  C   UNL     1      -0.714   3.564   5.423  0.00  0.00    +0.015 A 
BRANCH  17  20
ATOM     20  S   UNL     1      -1.205   4.662   1.591  0.00  0.00    +0.061 S 
ATOM     21  O   UNL     1      -0.797   5.987   1.904  0.00  0.00    -0.153 OA
ATOM     22  O   UNL     1      -0.647   3.928   0.510  0.00  0.00    -0.153 OA
BRANCH  20  23
ATOM     23  N   UNL     1      -2.840   4.720   1.330  0.00  0.00    -0.174 NA
ATOM     24  C   UNL     1      -3.471   3.838   0.340  0.00  0.00    +0.110 C 
ATOM     25  C   UNL     1      -4.291   4.694  -0.631  0.00  0.00    +0.017 C 
ATOM     26  C   UNL     1      -5.276   5.556   0.162  0.00  0.00    +0.003 C 
ATOM     27  C   UNL     1      -4.503   6.490   1.094  0.00  0.00    +0.020 C 
ATOM     28  C   UNL     1      -3.686   5.651   2.089  0.00  0.00    +0.077 C 
ATOM     29  C   UNL     1      -2.805   6.571   2.937  0.00  0.00    +0.026 C 
ENDBRANCH  20  23
ENDBRANCH  17  20
ENDBRANCH  12  14
BRANCH  11  30
ATOM     30  C   UNL     1      -0.681  -0.645   7.854  0.00  0.00    +0.114 C 
BRANCH  30  31
ATOM     31  C   UNL     1       0.655  -1.387   7.918  0.00  0.00    +0.001 C 
BRANCH  31  32
ATOM     32  C   UNL     1       0.740  -2.171   9.229  0.00  0.00    -0.078 C 
BRANCH  32  33
ATOM     33  N   UNL     1       2.023  -2.884   9.291  0.00  0.00    +0.376 N 
ATOM     34  C   UNL     1       2.156  -3.539  10.599  0.00  0.00    -0.097 C 
ATOM     35  C   UNL     1       2.072  -3.897   8.229  0.00  0.00    -0.097 C 
ATOM     36  H   UNL     1       2.779  -2.228   9.165  0.00  0.00    -0.083 HD
ENDBRANCH  32  33
ENDBRANCH  31  32
ENDBRANCH  30  31
ENDBRANCH  11  30
TORSDOF 7
