REMARK  Name = ZINC04082812
REMARK  11 active torsions:
REMARK  status: ('A' for Active; 'I' for Inactive)
REMARK    1  A    between atoms: C_1  and  C_2
REMARK    2  A    between atoms: C_2  and  C_3
REMARK    3  A    between atoms: C_3  and  C_4
REMARK    4  A    between atoms: C_4  and  O_5
REMARK    5  A    between atoms: O_5  and  C_6
REMARK    6  A    between atoms: C_11  and  C_12
REMARK    7  A    between atoms: C_17  and  C_22
REMARK    8  A    between atoms: C_25  and  O_30
REMARK    9  A    between atoms: C_26  and  O_28
REMARK   10  A    between atoms: O_28  and  C_29
REMARK   11  A    between atoms: O_30  and  C_31
REMARK                            x       y       z     vdW  Elec       q    Type
REMARK                         _______ _______ _______ _____ _____    ______ ____
ROOT
ATOM      1  C   UNL     1      -2.663   2.385  -2.501  0.00  0.00    +0.139 C 
ATOM      2  C   UNL     1      -1.975   1.917  -1.239  0.00  0.00    +0.037 C 
ATOM      3  C   UNL     1      -2.572   1.663  -0.064  0.00  0.00    +0.017 C 
ATOM      4  C   UNL     1      -1.757   1.163   1.118  0.00  0.00    +0.059 C 
ATOM      5  C   UNL     1      -0.347   1.759   1.072  0.00  0.00    +0.032 C 
ATOM      6  C   UNL     1       0.299   1.315  -0.246  0.00  0.00    +0.088 C 
ATOM      7  C   UNL     1      -0.577   1.749  -1.382  0.00  0.00    +0.163 C 
ATOM      8  O   UNL     1      -0.069   1.965  -2.465  0.00  0.00    -0.292 OA
ATOM      9  N   UNL     1      -3.897   1.816   0.191  0.00  0.00    -0.316 N 
ATOM     10  C   UNL     1      -4.920   1.353  -0.631  0.00  0.00    +0.052 A 
ATOM     11  C   UNL     1      -5.820   0.386  -0.220  0.00  0.00    +0.025 A 
ATOM     12  C   UNL     1      -6.843   0.006  -1.071  0.00  0.00    +0.002 A 
ATOM     13  C   UNL     1      -6.964   0.592  -2.319  0.00  0.00    +0.002 A 
ATOM     14  C   UNL     1      -6.054   1.546  -2.737  0.00  0.00    +0.025 A 
ATOM     15  C   UNL     1      -5.014   1.913  -1.896  0.00  0.00    +0.049 A 
ATOM     16  N   UNL     1      -4.034   2.811  -2.307  0.00  0.00    -0.331 N 
ATOM     17  H   UNL     1      -4.148   2.280   1.005  0.00  0.00    +0.152 HD
ATOM     18  H   UNL     1      -4.272   3.738  -2.466  0.00  0.00    +0.147 HD
ENDROOT
BRANCH   1  24
ATOM     19  C   UNL     1      -2.886   1.518  -4.843  0.00  0.00    +0.126 A 
ATOM     20  C   UNL     1      -2.872   0.478  -5.761  0.00  0.00    +0.046 A 
ATOM     21  C   UNL     1      -2.623  -0.813  -5.338  0.00  0.00    +0.004 A 
ATOM     22  C   UNL     1      -2.387  -1.069  -3.999  0.00  0.00    +0.001 A 
ATOM     23  C   UNL     1      -2.395  -0.034  -3.083  0.00  0.00    +0.009 A 
ATOM     24  C   UNL     1      -2.649   1.258  -3.501  0.00  0.00    +0.019 A 
BRANCH  19  25
ATOM     25  O   UNL     1      -3.131   2.789  -5.257  0.00  0.00    -0.492 OA
BRANCH  25  26
ATOM     26  C   UNL     1      -3.366   2.982  -6.653  0.00  0.00    +0.229 C 
BRANCH  26  27
ATOM     27  C   UNL     1      -3.621   4.466  -6.927  0.00  0.00    +0.041 C 
BRANCH  27  29
ATOM     28  C   UNL     1      -4.127   6.156  -8.695  0.00  0.00    +0.004 C 
ATOM     29  C   UNL     1      -3.873   4.673  -8.422  0.00  0.00    -0.000 C 
ENDBRANCH  27  29
ENDBRANCH  26  27
ENDBRANCH  25  26
ENDBRANCH  19  25
ENDBRANCH   1  24
BRANCH   5  30
ATOM     30  C   UNL     1       0.467   1.254   2.236  0.00  0.00    -0.040 A 
ATOM     31  C   UNL     1       0.659  -0.105   2.404  0.00  0.00    +0.008 A 
ATOM     32  C   UNL     1       1.404  -0.574   3.470  0.00  0.00    +0.049 A 
ATOM     33  C   UNL     1       1.961   0.319   4.372  0.00  0.00    +0.161 A 
ATOM     34  C   UNL     1       1.768   1.687   4.202  0.00  0.00    +0.162 A 
ATOM     35  C   UNL     1       1.023   2.150   3.129  0.00  0.00    +0.053 A 
BRANCH  34  36
ATOM     36  O   UNL     1       2.312   2.567   5.085  0.00  0.00    -0.491 OA
ATOM     37  C   UNL     1       2.072   3.955   4.847  0.00  0.00    +0.277 C 
ENDBRANCH  34  36
BRANCH  33  38
ATOM     38  O   UNL     1       2.695  -0.141   5.421  0.00  0.00    -0.491 OA
ATOM     39  C   UNL     1       2.852  -1.556   5.532  0.00  0.00    +0.277 C 
ENDBRANCH  33  38
ENDBRANCH   5  30
TORSDOF 8
