REMARK  Name = ZINC16183326
REMARK  6 active torsions:
REMARK  status: ('A' for Active; 'I' for Inactive)
REMARK    1  A    between atoms: C_4  and  C_7
REMARK    2  A    between atoms: C_7  and  C_9
REMARK    3  A    between atoms: C_11  and  C_23
REMARK    4  A    between atoms: C_17  and  C_18
REMARK    5  A    between atoms: C_17  and  O_22
REMARK    6  A    between atoms: C_26  and  C_28
REMARK                            x       y       z     vdW  Elec       q    Type
REMARK                         _______ _______ _______ _____ _____    ______ ____
ROOT
ATOM      1  C   UNL     1       2.005   9.535  -1.389  0.00  0.00    +0.147 C 
ATOM      2  C   UNL     1       1.509   9.269   0.036  0.00  0.00    +0.156 C 
ATOM      3  N   UNL     1       2.660   9.015   0.905  0.00  0.00    -0.289 N 
ATOM      4  C   UNL     1       3.859   9.561   0.652  0.00  0.00    +0.302 C 
ATOM      5  O   UNL     1       4.779   9.327   1.412  0.00  0.00    -0.253 OA
ATOM      6  N   UNL     1       4.083  10.356  -0.405  0.00  0.00    -0.264 N 
ATOM      7  C   UNL     1       3.014  10.687  -1.349  0.00  0.00    +0.243 C 
ATOM      8  H   UNL     1       2.553   8.440   1.679  0.00  0.00    +0.151 HD
ATOM      9  H   UNL     1       4.971  10.719  -0.546  0.00  0.00    +0.153 HD
ENDROOT
BRANCH   2  10
ATOM     10  C   UNL     1       0.601   8.066   0.038  0.00  0.00    +0.127 A 
ATOM     11  C   UNL     1      -0.745   8.099   0.051  0.00  0.00    +0.047 A 
ATOM     12  C   UNL     1      -1.191   6.762   0.043  0.00  0.00    +0.050 A 
ATOM     13  C   UNL     1      -0.079   5.979   0.034  0.00  0.00    +0.135 A 
ATOM     14  O   UNL     1       1.001   6.784   0.028  0.00  0.00    -0.458 OA
BRANCH  13  15
ATOM     15  C   UNL     1      -0.059   4.501   0.026  0.00  0.00    +0.017 A 
ATOM     16  C   UNL     1       1.158   3.817   0.011  0.00  0.00    +0.013 A 
ATOM     17  C   UNL     1       1.170   2.438   0.004  0.00  0.00    +0.021 A 
ATOM     18  C   UNL     1      -0.021   1.732   0.012  0.00  0.00    +0.041 A 
ATOM     19  C   UNL     1      -1.232   2.405   0.021  0.00  0.00    +0.021 A 
ATOM     20  C   UNL     1      -1.257   3.784   0.034  0.00  0.00    +0.013 A 
ATOM     21 CL   UNL     1       0.002  -0.004   0.002  0.00  0.00    -0.084 Cl
ENDBRANCH  13  15
ENDBRANCH   2  10
BRANCH   7  22
ATOM     22  C   UNL     1       3.609  10.895  -2.743  0.00  0.00    +0.436 C 
ATOM     23  F   UNL     1       2.586  11.204  -3.645  0.00  0.00    -0.166 F 
ATOM     24  F   UNL     1       4.530  11.947  -2.704  0.00  0.00    -0.166 F 
ATOM     25  F   UNL     1       4.256   9.724  -3.153  0.00  0.00    -0.166 F 
ENDBRANCH   7  22
BRANCH   1  26
ATOM     26  C   UNL     1       2.671   8.297  -1.932  0.00  0.00    +0.173 C 
ATOM     27  O   UNL     1       3.861   8.128  -1.769  0.00  0.00    -0.292 OA
BRANCH  26  31
ATOM     28  C   UNL     1       0.386   5.403  -4.029  0.00  0.00    +0.000 A 
ATOM     29  C   UNL     1       1.744   5.207  -3.846  0.00  0.00    +0.001 A 
ATOM     30  C   UNL     1       2.494   6.143  -3.165  0.00  0.00    +0.011 A 
ATOM     31  C   UNL     1       1.879   7.293  -2.660  0.00  0.00    +0.018 A 
ATOM     32  C   UNL     1       0.505   7.481  -2.845  0.00  0.00    +0.011 A 
ATOM     33  C   UNL     1      -0.230   6.539  -3.533  0.00  0.00    +0.001 A 
ENDBRANCH  26  31
ENDBRANCH   1  26
BRANCH   7  34
ATOM     34  O   UNL     1       2.357  11.883  -0.925  0.00  0.00    -0.364 OA
ATOM     35  H   UNL     1       2.937  12.655  -0.876  0.00  0.00    +0.212 HD
ENDBRANCH   7  34
TORSDOF 6
