REMARK  Name = ZINC01037895
REMARK  9 active torsions:
REMARK  status: ('A' for Active; 'I' for Inactive)
REMARK    1  A    between atoms: C_1  and  C_2
REMARK    2  A    between atoms: C_2  and  C_3
REMARK    3  A    between atoms: C_2  and  C_4
REMARK    4  A    between atoms: C_2  and  N_5
REMARK    5  A    between atoms: N_5  and  C_6
REMARK    6  A    between atoms: C_6  and  N_8
REMARK    7  A    between atoms: N_8  and  N_9
REMARK    8  A    between atoms: C_10  and  C_11
REMARK    9  A    between atoms: C_16  and  O_17
REMARK                            x       y       z     vdW  Elec       q    Type
REMARK                         _______ _______ _______ _____ _____    ______ ____
ROOT
ATOM      1  N   UNL     1       2.294   4.215  -0.014  0.00  0.00    -0.188 NA
ATOM      2  C   UNL     1       1.175   3.556  -0.013  0.00  0.00    +0.142 C 
ENDROOT
BRANCH   2   3
ATOM      3  C   UNL     1       1.188   2.083  -0.072  0.00  0.00    +0.037 A 
ATOM      4  C   UNL     1      -0.013   1.371  -0.071  0.00  0.00    +0.028 A 
ATOM      5  C   UNL     1       0.005  -0.008  -0.127  0.00  0.00    +0.019 A 
ATOM      6  C   UNL     1       1.211  -0.688  -0.184  0.00  0.00    +0.019 A 
ATOM      7  C   UNL     1       2.406   0.007  -0.185  0.00  0.00    +0.047 A 
ATOM      8  C   UNL     1       2.405   1.391  -0.130  0.00  0.00    +0.126 A 
ATOM      9 BR   UNL     1      -1.621  -0.973  -0.125  0.00  0.00    -0.050 Br
BRANCH   8  10
ATOM     10  O   UNL     1       3.579   2.074  -0.131  0.00  0.00    -0.506 OA
ATOM     11  H   UNL     1       3.897   2.307  -1.014  0.00  0.00    +0.292 HD
ENDBRANCH   8  10
ENDBRANCH   2   3
BRANCH   1  12
ATOM     12  N   UNL     1       2.282   5.615   0.042  0.00  0.00    -0.218 N 
ATOM     13  H   UNL     1       1.438   6.092   0.082  0.00  0.00    +0.176 HD
BRANCH  12  14
ATOM     14  C   UNL     1       3.443   6.299   0.041  0.00  0.00    +0.150 C 
ATOM     15  S   UNL     1       3.429   8.010   0.109  0.00  0.00    -0.017 S 
BRANCH  14  16
ATOM     16  N   UNL     1       4.616   5.637  -0.015  0.00  0.00    -0.321 N 
ATOM     17  H   UNL     1       4.627   4.667   0.022  0.00  0.00    +0.148 HD
BRANCH  16  19
ATOM     18  C   UNL     1       6.064   7.254   1.110  0.00  0.00    +0.031 C 
ATOM     19  C   UNL     1       5.872   6.380  -0.131  0.00  0.00    +0.025 C 
ATOM     20  C   UNL     1       7.038   5.397  -0.247  0.00  0.00    +0.031 C 
ATOM     21  C   UNL     1       5.827   7.267  -1.377  0.00  0.00    +0.031 C 
ENDBRANCH  16  19
ENDBRANCH  14  16
ENDBRANCH  12  14
ENDBRANCH   1  12
TORSDOF 6
