REMARK  Name = ZINC39220941
REMARK  10 active torsions:
REMARK  status: ('A' for Active; 'I' for Inactive)
REMARK    1  A    between atoms: C_1  and  C_2
REMARK    2  A    between atoms: C_2  and  C_3
REMARK    3  A    between atoms: C_3  and  C_4
REMARK    4  A    between atoms: C_4  and  N_5
REMARK    5  A    between atoms: C_14  and  C_16
REMARK    6  A    between atoms: C_16  and  O_18
REMARK    7  A    between atoms: O_18  and  C_19
REMARK    8  A    between atoms: C_19  and  C_21
REMARK    9  A    between atoms: C_19  and  C_22
REMARK   10  A    between atoms: N_24  and  C_25
REMARK                            x       y       z     vdW  Elec       q    Type
REMARK                         _______ _______ _______ _____ _____    ______ ____
ROOT
ATOM      1  C   UNL     1      -5.129  -3.413   2.645  0.00  0.00    +0.361 C 
ATOM      2  O   UNL     1      -6.265  -3.826   2.771  0.00  0.00    -0.243 OA
ENDROOT
BRANCH   1  12
ATOM      3  N   UNL     1      -2.784  -2.534   0.024  0.00  0.00    -0.228 N 
ATOM      4  C   UNL     1      -3.395  -2.743  -1.161  0.00  0.00    +0.275 A 
ATOM      5  O   UNL     1      -2.814  -2.522  -2.208  0.00  0.00    -0.266 OA
ATOM      6  C   UNL     1      -4.776  -3.245  -1.158  0.00  0.00    +0.050 A 
ATOM      7  C   UNL     1      -5.492  -3.492  -2.325  0.00  0.00    +0.014 A 
ATOM      8  C   UNL     1      -6.785  -3.962  -2.237  0.00  0.00    +0.001 A 
ATOM      9  C   UNL     1      -7.375  -4.190  -1.001  0.00  0.00    +0.001 A 
ATOM     10  C   UNL     1      -6.682  -3.950   0.167  0.00  0.00    +0.011 A 
ATOM     11  C   UNL     1      -5.376  -3.476   0.101  0.00  0.00    +0.021 A 
ATOM     12  C   UNL     1      -4.568  -3.195   1.298  0.00  0.00    +0.176 A 
ATOM     13  N   UNL     1      -3.342  -2.753   1.154  0.00  0.00    -0.161 NA
BRANCH   3  14
ATOM     14  C   UNL     1      -1.408  -2.033   0.015  0.00  0.00    +0.147 C 
BRANCH  14  15
ATOM     15  C   UNL     1      -1.421  -0.503   0.033  0.00  0.00    +0.023 C 
BRANCH  15  17
ATOM     16  C   UNL     1       0.004   1.549   0.042  0.00  0.00    +0.004 C 
ATOM     17  C   UNL     1       0.017   0.019   0.024  0.00  0.00    -0.002 C 
ENDBRANCH  15  17
ENDBRANCH  14  15
ENDBRANCH   3  14
ENDBRANCH   1  12
BRANCH   1  18
ATOM     18  O   UNL     1      -4.382  -3.152   3.736  0.00  0.00    -0.448 OA
BRANCH  18  19
ATOM     19  C   UNL     1      -4.989  -3.386   5.009  0.00  0.00    +0.259 C 
ATOM     20  C   UNL     1      -5.698  -2.114   5.477  0.00  0.00    +0.062 C 
BRANCH  19  21
ATOM     21  C   UNL     1      -3.928  -3.767   6.009  0.00  0.00    +0.258 C 
ATOM     22  O   UNL     1      -2.758  -3.744   5.690  0.00  0.00    -0.271 OA
ATOM     23  N   UNL     1      -4.279  -4.133   7.258  0.00  0.00    -0.281 N 
ATOM     24  H   UNL     1      -5.209  -4.089   7.532  0.00  0.00    +0.155 HD
BRANCH  23  25
ATOM     25  C   UNL     1      -3.303  -4.577   8.158  0.00  0.00    +0.053 A 
ATOM     26  C   UNL     1      -2.029  -4.025   8.130  0.00  0.00    +0.046 A 
ATOM     27  C   UNL     1      -1.067  -4.465   9.020  0.00  0.00    +0.061 A 
ATOM     28  C   UNL     1      -1.373  -5.455   9.939  0.00  0.00    +0.061 A 
ATOM     29  C   UNL     1      -2.642  -6.006   9.969  0.00  0.00    +0.043 A 
ATOM     30  C   UNL     1      -3.609  -5.565   9.085  0.00  0.00    +0.064 A 
ATOM     31 CL   UNL     1      -5.203  -6.252   9.129  0.00  0.00    -0.082 Cl
ATOM     32 CL   UNL     1      -0.163  -6.005  11.055  0.00  0.00    -0.082 Cl
ATOM     33 CL   UNL     1       0.526  -3.776   8.985  0.00  0.00    -0.082 Cl
ENDBRANCH  23  25
ENDBRANCH  19  21
ENDBRANCH  18  19
ENDBRANCH   1  18
TORSDOF 8
