REMARK  Name = ZINC27574426
REMARK  8 active torsions:
REMARK  status: ('A' for Active; 'I' for Inactive)
REMARK    1  A    between atoms: C_6  and  C_7
REMARK    2  A    between atoms: C_7  and  N_8
REMARK    3  A    between atoms: N_8  and  C_9
REMARK    4  A    between atoms: N_8  and  C_26
REMARK    5  A    between atoms: C_9  and  C_10
REMARK    6  A    between atoms: N_12  and  C_13
REMARK    7  A    between atoms: C_13  and  C_14
REMARK    8  A    between atoms: N_16  and  C_17
REMARK                            x       y       z     vdW  Elec       q    Type
REMARK                         _______ _______ _______ _____ _____    ______ ____
ROOT
ATOM      1  C   UNL     1       5.623   2.146  -0.985  0.00  0.00    +0.019 C 
ENDROOT
BRANCH   1   2
ATOM      2  C   UNL     1       6.582   2.661  -2.027  0.00  0.00    +0.197 C 
ATOM      3  O   UNL     1       6.272   2.636  -3.200  0.00  0.00    -0.278 OA
ATOM      4  N   UNL     1       7.782   3.148  -1.657  0.00  0.00    -0.308 N 
ATOM      5  H   UNL     1       8.062   3.170  -0.593  0.00  0.00    +0.149 HD
BRANCH   4   6
ATOM      6  C   UNL     1       8.714   3.648  -2.671  0.00  0.00    +0.200 C 
BRANCH   6   7
ATOM      7  C   UNL     1       9.973   4.133  -1.999  0.00  0.00    +0.234 C 
ATOM      8  O   UNL     1      10.082   4.066  -0.793  0.00  0.00    -0.274 OA
ATOM      9  N   UNL     1      10.979   4.640  -2.740  0.00  0.00    -0.282 N 
ATOM     10  H   UNL     1      10.845   4.788  -3.821  0.00  0.00    +0.155 HD
BRANCH   9  11
ATOM     11  C   UNL     1      12.196   4.978  -2.131  0.00  0.00    +0.072 A 
ATOM     12  C   UNL     1      12.571   4.368  -0.942  0.00  0.00    +0.029 A 
ATOM     13  C   UNL     1      13.772   4.698  -0.345  0.00  0.00    +0.043 A 
ATOM     14  C   UNL     1      14.599   5.644  -0.925  0.00  0.00    +0.161 A 
ATOM     15  C   UNL     1      14.226   6.260  -2.110  0.00  0.00    +0.195 A 
ATOM     16  C   UNL     1      13.025   5.928  -2.715  0.00  0.00    +0.182 A 
ATOM     17  F   UNL     1      12.661   6.527  -3.869  0.00  0.00    -0.200 F 
ATOM     18  F   UNL     1      15.034   7.184  -2.675  0.00  0.00    -0.199 F 
ATOM     19  F   UNL     1      15.771   5.968  -0.337  0.00  0.00    -0.202 F 
ENDBRANCH   9  11
ENDBRANCH   6   7
ENDBRANCH   4   6
ENDBRANCH   1   2
BRANCH   1  20
ATOM     20  N   UNL     1       4.336   1.826  -1.618  0.00  0.00    +0.390 N 
ATOM     21  H   UNL     1       4.519   1.663  -2.690  0.00  0.00    -0.080 HD
BRANCH  20  22
ATOM     22  C   UNL     1       3.393   2.944  -1.486  0.00  0.00    -0.067 C 
ATOM     23  C   UNL     1       4.011   4.230  -2.072  0.00  0.00    -0.015 C 
ATOM     24  C   UNL     1       3.521   5.354  -1.125  0.00  0.00    -0.002 C 
ATOM     25  C   UNL     1       3.576   4.676   0.267  0.00  0.00    -0.002 C 
ATOM     26  C   UNL     1       3.116   3.228   0.001  0.00  0.00    -0.015 C 
ENDBRANCH  20  22
BRANCH  20  27
ATOM     27  C   UNL     1       3.769   0.590  -1.063  0.00  0.00    -0.042 C 
BRANCH  27  33
ATOM     28  C   UNL     1       3.015  -0.691  -3.075  0.00  0.00    +0.005 A 
ATOM     29  C   UNL     1       2.023  -1.161  -3.917  0.00  0.00    +0.050 A 
ATOM     30  C   UNL     1       0.696  -0.859  -3.660  0.00  0.00    +0.166 A 
ATOM     31  C   UNL     1       0.363  -0.082  -2.554  0.00  0.00    +0.166 A 
ATOM     32  C   UNL     1       1.362   0.386  -1.715  0.00  0.00    +0.051 A 
ATOM     33  C   UNL     1       2.685   0.080  -1.977  0.00  0.00    -0.060 A 
ATOM     34  O   UNL     1      -0.992   0.077  -2.524  0.00  0.00    -0.453 OA
ATOM     35  C   UNL     1      -1.451  -0.274  -3.841  0.00  0.00    +0.466 C 
ATOM     36  O   UNL     1      -0.451  -1.192  -4.320  0.00  0.00    -0.453 OA
ENDBRANCH  27  33
ENDBRANCH  20  27
ENDBRANCH   1  20
TORSDOF 8
