REMARK  Name = ZINC05041362
REMARK  9 active torsions:
REMARK  status: ('A' for Active; 'I' for Inactive)
REMARK    1  A    between atoms: C_1  and  C_2
REMARK    2  A    between atoms: C_4  and  S_10
REMARK    3  A    between atoms: C_7  and  C_8
REMARK    4  A    between atoms: S_10  and  N_13
REMARK    5  A    between atoms: N_13  and  C_14
REMARK    6  A    between atoms: C_16  and  C_21
REMARK    7  A    between atoms: C_16  and  C_22
REMARK    8  A    between atoms: C_17  and  C_19
REMARK    9  A    between atoms: C_17  and  C_20
REMARK                            x       y       z     vdW  Elec       q    Type
REMARK                         _______ _______ _______ _____ _____    ______ ____
ROOT
ATOM      1  N   UNL     1       0.954   2.906  -3.148  0.00  0.00    -0.187 NA
ATOM      2  H   UNL     1       1.463   2.387  -3.789  0.00  0.00    +0.148 HD
ENDROOT
BRANCH   1   3
ATOM      3  C   UNL     1       0.638   2.341  -1.830  0.00  0.00    +0.074 C 
ATOM      4  C   UNL     1       1.812   1.485  -1.355  0.00  0.00    +0.007 C 
ATOM      5  C   UNL     1       1.502   0.867   0.006  0.00  0.00    -0.072 C 
ATOM      6  C   UNL     1      -0.936   0.827  -0.596  0.00  0.00    -0.072 C 
ATOM      7  C   UNL     1      -0.597   1.448  -1.949  0.00  0.00    +0.007 C 
ATOM      8  C   UNL     1      -1.994  -0.272  -0.841  0.00  0.00    -0.010 C 
ATOM      9  C   UNL     1      -1.583   1.885   0.306  0.00  0.00    -0.010 C 
ATOM     10  C   UNL     1       1.621   1.938   1.095  0.00  0.00    -0.010 C 
ATOM     11  C   UNL     1       2.585  -0.198   0.291  0.00  0.00    -0.010 C 
ATOM     12  N   UNL     1       0.200   0.151   0.086  0.00  0.00    +0.386 N 
ATOM     13  H   UNL     1      -0.043   0.044   1.078  0.00  0.00    -0.084 HD
ATOM     14  H   UNL     1       0.320  -0.776  -0.339  0.00  0.00    -0.084 HD
ENDBRANCH   1   3
BRANCH   1  15
ATOM     15  S   UNL     1       0.441   4.431  -3.539  0.00  0.00    +0.060 S 
ATOM     16  O   UNL     1       0.799   5.272  -2.451  0.00  0.00    -0.153 OA
ATOM     17  O   UNL     1       0.877   4.678  -4.869  0.00  0.00    -0.153 OA
BRANCH  15  21
ATOM     18  C   UNL     1      -4.233   5.909  -1.723  0.00  0.00    +0.044 C 
ATOM     19  C   UNL     1      -3.434   5.102  -2.714  0.00  0.00    -0.046 A 
ATOM     20  C   UNL     1      -2.053   5.129  -2.675  0.00  0.00    +0.033 A 
ATOM     21  C   UNL     1      -1.321   4.393  -3.586  0.00  0.00    +0.119 A 
ATOM     22  C   UNL     1      -1.970   3.620  -4.532  0.00  0.00    +0.044 A 
ATOM     23  C   UNL     1      -3.353   3.590  -4.569  0.00  0.00    +0.020 A 
ATOM     24  C   UNL     1      -4.084   4.331  -3.660  0.00  0.00    -0.046 A 
ATOM     25  C   UNL     1      -5.590   4.297  -3.699  0.00  0.00    +0.044 C 
ATOM     26 BR   UNL     1      -0.969   2.606  -5.775  0.00  0.00    -0.048 Br
ENDBRANCH  15  21
ENDBRANCH   1  15
TORSDOF 3
