REMARK  Name = ZINC45871173
REMARK  11 active torsions:
REMARK  status: ('A' for Active; 'I' for Inactive)
REMARK    1  A    between atoms: C_1  and  C_2
REMARK    2  A    between atoms: C_2  and  C_3
REMARK    3  A    between atoms: C_6  and  C_9
REMARK    4  A    between atoms: C_9  and  C_11
REMARK    5  A    between atoms: C_9  and  N_34
REMARK    6  A    between atoms: C_11  and  N_12
REMARK    7  A    between atoms: C_13  and  C_15
REMARK    8  A    between atoms: N_20  and  S_21
REMARK    9  A    between atoms: S_21  and  C_24
REMARK   10  A    between atoms: N_34  and  C_35
REMARK   11  A    between atoms: N_34  and  C_36
REMARK                            x       y       z     vdW  Elec       q    Type
REMARK                         _______ _______ _______ _____ _____    ______ ____
ROOT
ATOM      1  N   UNL     1      -7.650  -2.097  -0.487  0.00  0.00    -0.315 N 
ATOM      2  C   UNL     1      -8.803  -1.474  -0.805  0.00  0.00    +0.232 C 
ATOM      3  O   UNL     1      -8.842  -0.264  -0.863  0.00  0.00    -0.274 OA
ATOM      4  H   UNL     1      -7.619  -3.065  -0.441  0.00  0.00    +0.149 HD
ENDROOT
BRANCH   2   5
ATOM      5  C   UNL     1     -10.042  -2.283  -1.089  0.00  0.00    +0.165 C 
ATOM      6  C   UNL     1     -10.437  -3.096   0.162  0.00  0.00    +0.031 C 
ATOM      7  C   UNL     1     -11.527  -2.211   0.822  0.00  0.00    +0.019 C 
ATOM      8  C   UNL     1     -12.242  -1.621  -0.419  0.00  0.00    +0.110 C 
ATOM      9  N   UNL     1     -11.164  -1.386  -1.402  0.00  0.00    -0.165 NA
BRANCH   9  10
ATOM     10  S   UNL     1     -11.209  -0.294  -2.647  0.00  0.00    +0.062 S 
ATOM     11  O   UNL     1     -12.149   0.705  -2.278  0.00  0.00    -0.153 OA
ATOM     12  O   UNL     1      -9.858   0.011  -2.968  0.00  0.00    -0.153 OA
BRANCH  10  13
ATOM     13  C   UNL     1     -11.882  -1.127  -4.046  0.00  0.00    +0.109 A 
ATOM     14  C   UNL     1     -11.045  -1.792  -4.923  0.00  0.00    +0.032 A 
ATOM     15  C   UNL     1     -11.569  -2.445  -6.022  0.00  0.00    +0.051 A 
ATOM     16  C   UNL     1     -12.938  -2.436  -6.248  0.00  0.00    +0.162 A 
ATOM     17  C   UNL     1     -13.780  -1.770  -5.365  0.00  0.00    +0.164 A 
ATOM     18  C   UNL     1     -13.247  -1.120  -4.262  0.00  0.00    +0.078 A 
ATOM     19  O   UNL     1     -15.126  -1.756  -5.564  0.00  0.00    -0.485 OA
ATOM     20  C   UNL     1     -15.588  -2.106  -6.873  0.00  0.00    +0.270 C 
ATOM     21  C   UNL     1     -14.842  -3.369  -7.324  0.00  0.00    +0.270 C 
ATOM     22  O   UNL     1     -13.439  -3.081  -7.337  0.00  0.00    -0.485 OA
ENDBRANCH  10  13
ENDBRANCH   9  10
ENDBRANCH   2   5
BRANCH   1  23
ATOM     23  C   UNL     1      -6.446  -1.311  -0.211  0.00  0.00    +0.093 C 
BRANCH  23  24
ATOM     24  C   UNL     1      -5.265  -2.254   0.027  0.00  0.00    -0.021 C 
BRANCH  24  28
ATOM     25  C   UNL     1      -5.977  -4.571   3.545  0.00  0.00    -0.048 A 
ATOM     26  C   UNL     1      -6.209  -5.119   2.297  0.00  0.00    +0.004 A 
ATOM     27  C   UNL     1      -5.979  -4.369   1.159  0.00  0.00    +0.002 A 
ATOM     28  C   UNL     1      -5.517  -3.071   1.268  0.00  0.00    -0.059 A 
ATOM     29  C   UNL     1      -5.285  -2.522   2.516  0.00  0.00    +0.002 A 
ATOM     30  C   UNL     1      -5.519  -3.271   3.654  0.00  0.00    +0.004 A 
BRANCH  25  32
ATOM     31  C   UNL     1      -7.674  -5.189   5.243  0.00  0.00    +0.009 C 
ATOM     32  C   UNL     1      -6.228  -5.388   4.785  0.00  0.00    +0.032 C 
ENDBRANCH  25  32
ENDBRANCH  24  28
BRANCH  24  33
ATOM     33  N   UNL     1      -4.036  -1.467   0.200  0.00  0.00    +0.382 N 
ATOM     34  C   UNL     1      -2.910  -2.370   0.474  0.00  0.00    -0.096 C 
ATOM     35  C   UNL     1      -3.766  -0.705  -1.026  0.00  0.00    -0.096 C 
ATOM     36  H   UNL     1      -4.152  -0.829   0.974  0.00  0.00    -0.082 HD
ENDBRANCH  24  33
ENDBRANCH  23  24
ENDBRANCH   1  23
TORSDOF 8
