REMARK  Name = ZINC38655931
REMARK  11 active torsions:
REMARK  status: ('A' for Active; 'I' for Inactive)
REMARK    1  A    between atoms: C_1  and  C_2
REMARK    2  A    between atoms: C_2  and  C_3
REMARK    3  A    between atoms: C_2  and  C_4
REMARK    4  A    between atoms: C_4  and  O_5
REMARK    5  A    between atoms: O_5  and  C_6
REMARK    6  A    between atoms: C_9  and  C_12
REMARK    7  A    between atoms: C_12  and  O_14
REMARK    8  A    between atoms: O_14  and  C_15
REMARK    9  A    between atoms: C_22  and  N_36
REMARK   10  A    between atoms: C_23  and  C_34
REMARK   11  A    between atoms: C_24  and  C_26
REMARK                            x       y       z     vdW  Elec       q    Type
REMARK                         _______ _______ _______ _____ _____    ______ ____
ROOT
ATOM      1  C   UNL     1      -7.694  -6.404  -0.280  0.00  0.00    +0.135 A 
ATOM      2  C   UNL     1      -8.781  -5.542  -0.244  0.00  0.00    +0.047 A 
ATOM      3  C   UNL     1     -10.065  -6.049  -0.272  0.00  0.00    +0.012 A 
ATOM      4  C   UNL     1     -10.275  -7.415  -0.336  0.00  0.00    +0.008 A 
ATOM      5  C   UNL     1      -9.193  -8.281  -0.372  0.00  0.00    +0.138 A 
ATOM      6  C   UNL     1      -7.901  -7.773  -0.348  0.00  0.00    +0.093 A 
ATOM      7  O   UNL     1      -9.378  -9.623  -0.434  0.00  0.00    -0.441 OA
ATOM      8  C   UNL     1     -10.557 -10.118  -0.844  0.00  0.00    +0.199 C 
ATOM      9  C   UNL     1     -11.689  -9.375  -0.837  0.00  0.00    +0.098 C 
ATOM     10  C   UNL     1     -11.683  -7.948  -0.366  0.00  0.00    +0.098 C 
ENDROOT
BRANCH  10  11
ATOM     11  C   UNL     1     -12.273  -7.877   1.019  0.00  0.00    -0.033 A 
ATOM     12  C   UNL     1     -11.672  -8.559   2.061  0.00  0.00    +0.006 A 
ATOM     13  C   UNL     1     -12.213  -8.495   3.332  0.00  0.00    +0.022 A 
ATOM     14  C   UNL     1     -13.354  -7.748   3.561  0.00  0.00    +0.059 A 
ATOM     15  C   UNL     1     -13.955  -7.065   2.518  0.00  0.00    +0.060 A 
ATOM     16  C   UNL     1     -13.410  -7.126   1.248  0.00  0.00    +0.026 A 
ATOM     17 CL   UNL     1     -15.388  -6.128   2.804  0.00  0.00    -0.082 Cl
ATOM     18 CL   UNL     1     -14.034  -7.668   5.157  0.00  0.00    -0.082 Cl
ENDBRANCH  10  11
BRANCH   8  19
ATOM     19  N   UNL     1     -10.617 -11.418  -1.283  0.00  0.00    -0.328 N 
ATOM     20  H   UNL     1      -9.815 -11.963  -1.294  0.00  0.00    +0.145 HD
ATOM     21  H   UNL     1     -11.461 -11.790  -1.583  0.00  0.00    +0.145 HD
ENDBRANCH   8  19
BRANCH   9  22
ATOM     22  C   UNL     1     -12.916  -9.960  -1.287  0.00  0.00    +0.101 C 
ATOM     23  N   UNL     1     -13.889 -10.425  -1.644  0.00  0.00    -0.191 NA
ENDBRANCH   9  22
BRANCH   1  24
ATOM     24  O   UNL     1      -6.430  -5.907  -0.252  0.00  0.00    -0.422 OA
BRANCH  24  25
ATOM     25  C   UNL     1      -5.740  -5.868  -1.409  0.00  0.00    +0.344 C 
ATOM     26  O   UNL     1      -6.217  -6.351  -2.417  0.00  0.00    -0.245 OA
BRANCH  25  30
ATOM     27  C   UNL     1      -1.903  -4.055  -1.534  0.00  0.00    +0.121 A 
ATOM     28  C   UNL     1      -2.447  -4.608  -2.688  0.00  0.00    +0.046 A 
ATOM     29  C   UNL     1      -3.691  -5.197  -2.652  0.00  0.00    +0.018 A 
ATOM     30  C   UNL     1      -4.407  -5.239  -1.453  0.00  0.00    +0.060 A 
ATOM     31  C   UNL     1      -3.857  -4.682  -0.294  0.00  0.00    +0.018 A 
ATOM     32  C   UNL     1      -2.610  -4.100  -0.338  0.00  0.00    +0.046 A 
BRANCH  27  33
ATOM     33  O   UNL     1      -0.677  -3.476  -1.574  0.00  0.00    -0.492 OA
BRANCH  33  34
ATOM     34  C   UNL     1      -0.005  -3.465  -2.835  0.00  0.00    +0.232 C 
BRANCH  34  36
ATOM     35  C   UNL     1       2.123  -2.873  -4.002  0.00  0.00    +0.010 C 
ATOM     36  C   UNL     1       1.352  -2.775  -2.684  0.00  0.00    +0.020 C 
ATOM     37  C   UNL     1       1.139  -1.303  -2.325  0.00  0.00    +0.010 C 
ENDBRANCH  34  36
ENDBRANCH  33  34
ENDBRANCH  27  33
ENDBRANCH  25  30
ENDBRANCH  24  25
ENDBRANCH   1  24
TORSDOF 9
