REMARK  Name = ZINC20426151
REMARK  9 active torsions:
REMARK  status: ('A' for Active; 'I' for Inactive)
REMARK    1  A    between atoms: C_1  and  O_2
REMARK    2  A    between atoms: O_2  and  C_3
REMARK    3  A    between atoms: C_3  and  C_4
REMARK    4  A    between atoms: C_7  and  S_12
REMARK    5  A    between atoms: N_8  and  C_9
REMARK    6  A    between atoms: C_9  and  C_10
REMARK    7  A    between atoms: S_12  and  C_13
REMARK    8  A    between atoms: C_13  and  C_14
REMARK    9  A    between atoms: N_16  and  C_17
REMARK                            x       y       z     vdW  Elec       q    Type
REMARK                         _______ _______ _______ _____ _____    ______ ____
ROOT
ATOM      1  C   UNL     1       3.590   6.110   0.676  0.00  0.00    +0.228 C 
ATOM      2  O   UNL     1       4.634   5.553   0.413  0.00  0.00    -0.275 OA
ATOM      3  N   UNL     1       2.426   5.437   0.586  0.00  0.00    -0.284 N 
ATOM      4  H   UNL     1       1.473   5.962   0.751  0.00  0.00    +0.155 HD
ENDROOT
BRANCH   3   5
ATOM      5  C   UNL     1       2.429   4.080   0.285  0.00  0.00    +0.045 A 
ATOM      6  C   UNL     1       3.382   3.557  -0.589  0.00  0.00    +0.024 A 
ATOM      7  C   UNL     1       3.389   2.212  -0.891  0.00  0.00    +0.003 A 
ATOM      8  C   UNL     1       2.449   1.358  -0.332  0.00  0.00    +0.012 A 
ATOM      9  C   UNL     1       1.491   1.857   0.542  0.00  0.00    +0.035 A 
ATOM     10  C   UNL     1       1.476   3.230   0.856  0.00  0.00    +0.054 A 
ATOM     11  C   UNL     1       0.457   3.759   1.781  0.00  0.00    +0.196 C 
ATOM     12  O   UNL     1       0.575   4.872   2.255  0.00  0.00    -0.287 OA
ATOM     13  C   UNL     1      -0.711   2.918   2.127  0.00  0.00    +0.033 A 
ATOM     14  C   UNL     1      -1.820   3.472   2.756  0.00  0.00    +0.012 A 
ATOM     15  C   UNL     1      -2.914   2.671   3.054  0.00  0.00    +0.001 A 
ATOM     16  C   UNL     1      -2.900   1.322   2.747  0.00  0.00    +0.001 A 
ATOM     17  C   UNL     1      -1.801   0.755   2.127  0.00  0.00    +0.012 A 
ATOM     18  C   UNL     1      -0.701   1.546   1.809  0.00  0.00    +0.033 A 
ATOM     19  C   UNL     1       0.483   0.958   1.145  0.00  0.00    +0.195 C 
ATOM     20  O   UNL     1       0.623  -0.247   1.092  0.00  0.00    -0.287 OA
ENDBRANCH   3   5
BRANCH   1  21
ATOM     21  C   UNL     1       3.594   7.555   1.105  0.00  0.00    +0.173 C 
BRANCH  21  22
ATOM     22  S   UNL     1       5.295   8.173   1.128  0.00  0.00    -0.077 S 
BRANCH  22  26
ATOM     23  C   UNL     1       5.276  11.912   2.240  0.00  0.00    +0.160 A 
ATOM     24  N   UNL     1       4.010  11.603   2.268  0.00  0.00    -0.131 NA
ATOM     25  N   UNL     1       3.847  10.377   1.919  0.00  0.00    -0.122 NA
ATOM     26  C   UNL     1       5.011   9.832   1.648  0.00  0.00    +0.192 A 
ATOM     27  N   UNL     1       5.959  10.794   1.849  0.00  0.00    -0.300 N 
BRANCH  23  28
ATOM     28  C   UNL     1       5.876  13.252   2.581  0.00  0.00    +0.235 C 
BRANCH  28  30
ATOM     29  C   UNL     1       6.765  14.528   4.404  0.00  0.00    +0.194 C 
ATOM     30  O   UNL     1       6.187  13.293   3.975  0.00  0.00    -0.375 OA
ENDBRANCH  28  30
ENDBRANCH  23  28
BRANCH  27  31
ATOM     31  C   UNL     1       7.408  10.656   1.680  0.00  0.00    +0.152 C 
BRANCH  31  32
ATOM     32  C   UNL     1       7.784  11.014   0.265  0.00  0.00    -0.013 C 
ATOM     33  C   UNL     1       8.686  11.937   0.041  0.00  0.00    +0.005 C 
ENDBRANCH  31  32
ENDBRANCH  27  31
ENDBRANCH  22  26
ENDBRANCH  21  22
ENDBRANCH   1  21
TORSDOF 8
