REMARK  Name = ZINC13661053
REMARK  6 active torsions:
REMARK  status: ('A' for Active; 'I' for Inactive)
REMARK    1  A    between atoms: C_1  and  C_2
REMARK    2  A    between atoms: C_2  and  O_3
REMARK    3  A    between atoms: O_3  and  C_4
REMARK    4  A    between atoms: C_6  and  C_11
REMARK    5  A    between atoms: C_9  and  O_10
REMARK    6  A    between atoms: N_17  and  C_18
REMARK                            x       y       z     vdW  Elec       q    Type
REMARK                         _______ _______ _______ _____ _____    ______ ____
ROOT
ATOM      1  C   UNL     1      -1.178  -4.989  -0.264  0.00  0.00    +0.028 C 
ATOM      2  C   UNL     1      -0.903  -6.318  -0.293  0.00  0.00    +0.078 C 
ATOM      3  C   UNL     1      -1.292  -7.375   0.659  0.00  0.00    +0.256 C 
ATOM      4  O   UNL     1      -1.956  -7.128   1.649  0.00  0.00    -0.269 OA
ATOM      5  N   UNL     1      -0.887  -8.604   0.388  0.00  0.00    -0.260 N 
ATOM      6  C   UNL     1      -0.136  -8.864  -0.738  0.00  0.00    +0.166 C 
ATOM      7  N   UNL     1       0.343 -10.016  -1.153  0.00  0.00    -0.224 NA
ATOM      8  S   UNL     1       0.020  -7.258  -1.500  0.00  0.00    -0.049 S 
ATOM      9  H   UNL     1      -1.120  -9.330   0.988  0.00  0.00    +0.157 HD
ENDROOT
BRANCH   7  10
ATOM     10  C   UNL     1       1.148 -10.063  -2.259  0.00  0.00    +0.085 A 
ATOM     11  C   UNL     1       2.227  -9.186  -2.380  0.00  0.00    +0.031 A 
ATOM     12  C   UNL     1       3.034  -9.239  -3.497  0.00  0.00    +0.022 A 
ATOM     13  C   UNL     1       2.776 -10.160  -4.499  0.00  0.00    +0.042 A 
ATOM     14  C   UNL     1       1.708 -11.033  -4.386  0.00  0.00    +0.042 A 
ATOM     15  C   UNL     1       0.896 -10.995  -3.270  0.00  0.00    +0.068 A 
ATOM     16 CL   UNL     1      -0.439 -12.095  -3.127  0.00  0.00    -0.081 Cl
ATOM     17 CL   UNL     1       3.797 -10.219  -5.902  0.00  0.00    -0.083 Cl
ENDBRANCH   7  10
BRANCH   1  20
ATOM     18  C   UNL     1      -0.450  -1.960  -2.352  0.00  0.00    +0.162 A 
ATOM     19  C   UNL     1      -0.775  -2.751  -1.268  0.00  0.00    +0.057 A 
ATOM     20  C   UNL     1      -0.834  -4.142  -1.413  0.00  0.00    -0.020 A 
ATOM     21  C   UNL     1      -0.562  -4.723  -2.658  0.00  0.00    +0.012 A 
ATOM     22  C   UNL     1      -0.239  -3.926  -3.734  0.00  0.00    +0.050 A 
ATOM     23  C   UNL     1      -0.186  -2.546  -3.590  0.00  0.00    +0.158 A 
BRANCH  23  24
ATOM     24  O   UNL     1       0.128  -1.765  -4.656  0.00  0.00    -0.503 OA
ATOM     25  H   UNL     1       1.075  -1.597  -4.755  0.00  0.00    +0.292 HD
ENDBRANCH  23  24
BRANCH  18  26
ATOM     26  O   UNL     1      -0.392  -0.608  -2.215  0.00  0.00    -0.489 OA
BRANCH  26  28
ATOM     27  C   UNL     1      -0.559   1.450  -0.959  0.00  0.00    +0.048 C 
ATOM     28  C   UNL     1      -0.673  -0.075  -0.919  0.00  0.00    +0.226 C 
ENDBRANCH  26  28
ENDBRANCH  18  26
ENDBRANCH   1  20
TORSDOF 5
