REMARK  Name = ZINC36494001
REMARK  14 active torsions:
REMARK  status: ('A' for Active; 'I' for Inactive)
REMARK    1  A    between atoms: C_1  and  C_2
REMARK    2  A    between atoms: C_7  and  C_8
REMARK    3  A    between atoms: C_8  and  C_10
REMARK    4  A    between atoms: C_8  and  N_17
REMARK    5  A    between atoms: N_12  and  C_13
REMARK    6  A    between atoms: C_13  and  C_14
REMARK    7  A    between atoms: C_13  and  C_15
REMARK    8  A    between atoms: C_13  and  C_16
REMARK    9  A    between atoms: N_17  and  C_18
REMARK   10  A    between atoms: C_18  and  C_19
REMARK   11  A    between atoms: C_24  and  C_26
REMARK   12  A    between atoms: C_32  and  O_34
REMARK   13  A    between atoms: O_34  and  C_35
REMARK   14  A    between atoms: C_35  and  C_36
REMARK                            x       y       z     vdW  Elec       q    Type
REMARK                         _______ _______ _______ _____ _____    ______ ____
ROOT
ATOM      1  N   UNL     1       0.703  -1.513   3.632  0.00  0.00    -0.277 N 
ATOM      2  C   UNL     1       1.884  -1.342   4.260  0.00  0.00    +0.237 C 
ATOM      3  O   UNL     1       2.709  -0.580   3.802  0.00  0.00    -0.274 OA
ENDROOT
BRANCH   2   4
ATOM      4  C   UNL     1       2.178  -2.098   5.530  0.00  0.00    +0.165 C 
ATOM      5  C   UNL     1       1.500  -1.398   6.726  0.00  0.00    +0.033 C 
ATOM      6  C   UNL     1       2.552  -1.546   7.857  0.00  0.00    +0.021 C 
ATOM      7  C   UNL     1       3.878  -1.412   7.068  0.00  0.00    +0.112 C 
ATOM      8  N   UNL     1       3.626  -2.101   5.785  0.00  0.00    -0.256 N 
ATOM      9  C   UNL     1       4.564  -2.642   4.983  0.00  0.00    +0.404 C 
ATOM     10  O   UNL     1       4.237  -3.186   3.947  0.00  0.00    -0.226 OA
BRANCH   9  11
ATOM     11  O   UNL     1       5.864  -2.579   5.330  0.00  0.00    -0.445 OA
BRANCH  11  12
ATOM     12  C   UNL     1       6.804  -3.174   4.432  0.00  0.00    +0.269 C 
BRANCH  12  13
ATOM     13  C   UNL     1       8.197  -3.007   4.982  0.00  0.00    -0.010 A 
ATOM     14  C   UNL     1       8.939  -1.886   4.658  0.00  0.00    +0.007 A 
ATOM     15  C   UNL     1      10.217  -1.734   5.162  0.00  0.00    +0.000 A 
ATOM     16  C   UNL     1      10.753  -2.702   5.991  0.00  0.00    +0.000 A 
ATOM     17  C   UNL     1      10.011  -3.822   6.315  0.00  0.00    +0.000 A 
ATOM     18  C   UNL     1       8.732  -3.973   5.814  0.00  0.00    +0.007 A 
ENDBRANCH  12  13
ENDBRANCH  11  12
ENDBRANCH   9  11
ENDBRANCH   2   4
BRANCH   1  19
ATOM     19  C   UNL     1       0.416  -0.778   2.398  0.00  0.00    +0.193 C 
BRANCH  19  26
ATOM     20  C   UNL     1      -1.594   0.758   3.794  0.00  0.00    +0.044 C 
ATOM     21  C   UNL     1      -0.340   1.431   3.299  0.00  0.00    -0.045 A 
ATOM     22  C   UNL     1      -0.148   2.783   3.519  0.00  0.00    +0.004 A 
ATOM     23  C   UNL     1       1.002   3.401   3.066  0.00  0.00    +0.000 A 
ATOM     24  C   UNL     1       1.962   2.667   2.393  0.00  0.00    +0.000 A 
ATOM     25  C   UNL     1       1.771   1.315   2.174  0.00  0.00    +0.006 A 
ATOM     26  C   UNL     1       0.622   0.697   2.631  0.00  0.00    -0.015 A 
ENDBRANCH  19  26
BRANCH  19  27
ATOM     27  C   UNL     1       1.344  -1.248   1.307  0.00  0.00    +0.239 C 
ATOM     28  O   UNL     1       2.231  -2.034   1.562  0.00  0.00    -0.273 OA
ATOM     29  N   UNL     1       1.188  -0.794   0.048  0.00  0.00    -0.309 N 
ATOM     30  H   UNL     1       0.528  -0.108  -0.143  0.00  0.00    +0.149 HD
BRANCH  29  31
ATOM     31  C   UNL     1       2.014  -1.336  -1.034  0.00  0.00    +0.026 C 
ATOM     32  C   UNL     1       1.776  -2.842  -1.152  0.00  0.00    +0.031 C 
ATOM     33  C   UNL     1       1.639  -0.655  -2.352  0.00  0.00    +0.031 C 
ATOM     34  C   UNL     1       3.490  -1.075  -0.728  0.00  0.00    +0.031 C 
ENDBRANCH  29  31
ENDBRANCH  19  27
ENDBRANCH   1  19
BRANCH   1  35
ATOM     35  C   UNL     1      -0.294  -2.433   4.185  0.00  0.00    +0.183 C 
BRANCH  35  36
ATOM     36  C   UNL     1      -0.175  -3.771   3.503  0.00  0.00    +0.122 A 
ATOM     37  C   UNL     1       0.605  -4.791   3.902  0.00  0.00    +0.046 A 
ATOM     38  C   UNL     1       0.408  -5.844   2.979  0.00  0.00    +0.041 A 
ATOM     39  C   UNL     1      -0.481  -5.404   2.070  0.00  0.00    +0.195 A 
ATOM     40  O   UNL     1      -0.835  -4.150   2.396  0.00  0.00    -0.466 OA
ENDBRANCH  35  36
ENDBRANCH   1  35
TORSDOF 10
