REMARK  Name = ZINC06300852
REMARK  9 active torsions:
REMARK  status: ('A' for Active; 'I' for Inactive)
REMARK    1  A    between atoms: C_1  and  C_2
REMARK    2  A    between atoms: C_4  and  C_36
REMARK    3  A    between atoms: C_9  and  C_14
REMARK    4  A    between atoms: C_14  and  C_16
REMARK    5  A    between atoms: C_14  and  N_67
REMARK    6  A    between atoms: N_20  and  C_21
REMARK    7  A    between atoms: C_21  and  C_22
REMARK    8  A    between atoms: C_25  and  O_28
REMARK    9  A    between atoms: O_28  and  C_29
REMARK                            x       y       z     vdW  Elec       q    Type
REMARK                         _______ _______ _______ _____ _____    ______ ____
ROOT
ATOM      1  C   UNL     1       1.028  -1.588   0.259  0.00  0.00    +0.039 C 
ENDROOT
BRANCH   1  10
ATOM      2  C   UNL     1       2.455  -6.555  -5.118  0.00  0.00    +0.044 C 
ATOM      3  C   UNL     1       1.515  -5.602  -4.424  0.00  0.00    -0.050 A 
ATOM      4  C   UNL     1       0.218  -5.451  -4.894  0.00  0.00    +0.008 A 
ATOM      5  C   UNL     1      -0.658  -4.586  -4.275  0.00  0.00    -0.026 A 
ATOM      6  C   UNL     1      -0.240  -3.856  -3.167  0.00  0.00    +0.052 A 
ATOM      7  C   UNL     1       1.076  -4.012  -2.694  0.00  0.00    -0.001 A 
ATOM      8  C   UNL     1       1.948  -4.895  -3.339  0.00  0.00    +0.013 A 
ATOM      9  C   UNL     1       1.506  -3.239  -1.527  0.00  0.00    +0.017 A 
ATOM     10  C   UNL     1       0.618  -2.398  -0.944  0.00  0.00    +0.011 A 
ATOM     11  C   UNL     1      -0.693  -2.282  -1.455  0.00  0.00    +0.251 A 
ATOM     12  O   UNL     1      -1.478  -1.524  -0.912  0.00  0.00    -0.268 OA
ATOM     13  N   UNL     1      -1.095  -2.983  -2.529  0.00  0.00    -0.322 N 
ATOM     14  H   UNL     1      -2.002  -2.877  -2.857  0.00  0.00    +0.169 HD
ATOM     15  C   UNL     1      -2.064  -4.432  -4.796  0.00  0.00    +0.046 C 
ENDBRANCH   1  10
BRANCH   1  22
ATOM     16  C   UNL     1       0.270  -0.826   2.439  0.00  0.00    -0.077 C 
ATOM     17  C   UNL     1      -0.501  -1.171   3.684  0.00  0.00    -0.019 C 
ATOM     18  C   UNL     1       0.418  -1.985   4.619  0.00  0.00    -0.002 C 
ATOM     19  C   UNL     1       0.529  -3.380   4.205  0.00  0.00    -0.002 C 
ATOM     20  C   UNL     1       1.135  -3.522   2.793  0.00  0.00    -0.019 C 
ATOM     21  C   UNL     1       0.064  -3.220   1.780  0.00  0.00    -0.077 C 
ATOM     22  N   UNL     1       0.023  -1.792   1.314  0.00  0.00    +0.389 N 
ATOM     23  H   UNL     1      -0.908  -1.605   0.925  0.00  0.00    -0.080 HD
ENDBRANCH   1  22
BRANCH   1  24
ATOM     24  C   UNL     1       1.055  -0.126  -0.105  0.00  0.00    +0.143 A 
ATOM     25  N   UNL     1       0.028   0.614  -0.445  0.00  0.00    -0.115 NA
ATOM     26  N   UNL     1       0.457   1.806  -0.681  0.00  0.00    -0.023 NA
ATOM     27  N   UNL     1       1.731   1.845  -0.500  0.00  0.00    -0.044 NA
ATOM     28  N   UNL     1       2.137   0.673  -0.144  0.00  0.00    -0.226 N 
BRANCH  28  29
ATOM     29  C   UNL     1       3.517   0.285   0.160  0.00  0.00    +0.182 C 
BRANCH  29  30
ATOM     30  C   UNL     1       4.242  -0.036  -1.121  0.00  0.00    -0.026 A 
ATOM     31  C   UNL     1       4.352  -1.348  -1.542  0.00  0.00    +0.009 A 
ATOM     32  C   UNL     1       5.012  -1.644  -2.720  0.00  0.00    +0.046 A 
ATOM     33  C   UNL     1       5.574  -0.625  -3.473  0.00  0.00    +0.120 A 
ATOM     34  C   UNL     1       5.468   0.691  -3.046  0.00  0.00    +0.046 A 
ATOM     35  C   UNL     1       4.802   0.982  -1.871  0.00  0.00    +0.009 A 
BRANCH  33  36
ATOM     36  O   UNL     1       6.228  -0.914  -4.629  0.00  0.00    -0.495 OA
ATOM     37  C   UNL     1       6.299  -2.290  -5.008  0.00  0.00    +0.277 C 
ENDBRANCH  33  36
ENDBRANCH  29  30
ENDBRANCH  28  29
ENDBRANCH   1  24
TORSDOF 6
