REMARK  Name = ZINC38685852
REMARK  12 active torsions:
REMARK  status: ('A' for Active; 'I' for Inactive)
REMARK    1  A    between atoms: C_1  and  C_2
REMARK    2  A    between atoms: C_2  and  O_3
REMARK    3  A    between atoms: O_3  and  C_4
REMARK    4  A    between atoms: C_7  and  C_10
REMARK    5  A    between atoms: C_15  and  O_24
REMARK    6  A    between atoms: C_19  and  N_23
REMARK    7  A    between atoms: C_20  and  C_21
REMARK    8  A    between atoms: O_24  and  C_25
REMARK    9  A    between atoms: C_25  and  C_27
REMARK   10  A    between atoms: C_27  and  C_29
REMARK   11  A    between atoms: C_27  and  O_30
REMARK   12  A    between atoms: O_30  and  C_31
REMARK                            x       y       z     vdW  Elec       q    Type
REMARK                         _______ _______ _______ _____ _____    ______ ____
ROOT
ATOM      1  C   UNL     1      -1.960  -5.926  -0.055  0.00  0.00    +0.098 C 
ATOM      2  C   UNL     1      -2.734  -6.367  -1.269  0.00  0.00    +0.008 A 
ATOM      3  C   UNL     1      -2.098  -6.429  -2.497  0.00  0.00    +0.012 A 
ATOM      4  C   UNL     1      -2.792  -6.831  -3.620  0.00  0.00    +0.047 A 
ATOM      5  C   UNL     1      -4.133  -7.176  -3.521  0.00  0.00    +0.135 A 
ATOM      6  C   UNL     1      -4.773  -7.116  -2.294  0.00  0.00    +0.093 A 
ATOM      7  C   UNL     1      -4.073  -6.710  -1.164  0.00  0.00    +0.138 A 
ATOM      8  O   UNL     1      -4.713  -6.657   0.030  0.00  0.00    -0.441 OA
ATOM      9  C   UNL     1      -4.004  -6.651   1.171  0.00  0.00    +0.199 C 
ATOM     10  C   UNL     1      -2.697  -6.313   1.196  0.00  0.00    +0.098 C 
ENDROOT
BRANCH   1  14
ATOM     11  C   UNL     1      -1.473  -1.681  -0.155  0.00  0.00    +0.121 A 
ATOM     12  C   UNL     1      -0.359  -2.509  -0.153  0.00  0.00    +0.046 A 
ATOM     13  C   UNL     1      -0.519  -3.881  -0.121  0.00  0.00    +0.008 A 
ATOM     14  C   UNL     1      -1.788  -4.429  -0.090  0.00  0.00    -0.034 A 
ATOM     15  C   UNL     1      -2.900  -3.607  -0.092  0.00  0.00    +0.008 A 
ATOM     16  C   UNL     1      -2.745  -2.234  -0.118  0.00  0.00    +0.046 A 
BRANCH  11  17
ATOM     17  O   UNL     1      -1.318  -0.332  -0.186  0.00  0.00    -0.492 OA
BRANCH  17  19
ATOM     18  C   UNL     1      -0.005   1.696  -0.254  0.00  0.00    +0.048 C 
ATOM     19  C   UNL     1       0.021   0.167  -0.222  0.00  0.00    +0.225 C 
ENDBRANCH  17  19
ENDBRANCH  11  17
ENDBRANCH   1  14
BRANCH   9  20
ATOM     20  N   UNL     1      -4.627  -6.998   2.344  0.00  0.00    -0.328 N 
ATOM     21  H   UNL     1      -5.566  -7.242   2.341  0.00  0.00    +0.145 HD
ATOM     22  H   UNL     1      -4.129  -6.999   3.176  0.00  0.00    +0.145 HD
ENDBRANCH   9  20
BRANCH  10  23
ATOM     23  C   UNL     1      -1.998  -6.327   2.446  0.00  0.00    +0.101 C 
ATOM     24  N   UNL     1      -1.443  -6.338   3.437  0.00  0.00    -0.191 NA
ENDBRANCH  10  23
BRANCH   5  25
ATOM     25  O   UNL     1      -4.818  -7.572  -4.627  0.00  0.00    -0.423 OA
BRANCH  25  26
ATOM     26  C   UNL     1      -5.814  -6.787  -5.066  0.00  0.00    +0.353 C 
ATOM     27  O   UNL     1      -6.017  -5.718  -4.540  0.00  0.00    -0.246 OA
BRANCH  26  28
ATOM     28  C   UNL     1      -6.677  -7.237  -6.216  0.00  0.00    +0.279 C 
ATOM     29  C   UNL     1      -5.827  -7.336  -7.484  0.00  0.00    +0.064 C 
BRANCH  28  30
ATOM     30  O   UNL     1      -7.729  -6.293  -6.421  0.00  0.00    -0.478 OA
BRANCH  30  31
ATOM     31  C   UNL     1      -8.924  -6.782  -6.847  0.00  0.00    +0.122 A 
ATOM     32  C   UNL     1      -9.046  -8.122  -7.181  0.00  0.00    +0.048 A 
ATOM     33  C   UNL     1     -10.260  -8.618  -7.614  0.00  0.00    +0.042 A 
ATOM     34  C   UNL     1     -11.356  -7.778  -7.714  0.00  0.00    +0.124 A 
ATOM     35  C   UNL     1     -11.236  -6.439  -7.380  0.00  0.00    +0.042 A 
ATOM     36  C   UNL     1     -10.024  -5.942  -6.941  0.00  0.00    +0.048 A 
ATOM     37  F   UNL     1     -12.543  -8.264  -8.138  0.00  0.00    -0.205 F 
ENDBRANCH  30  31
ENDBRANCH  28  30
ENDBRANCH  26  28
ENDBRANCH  25  26
ENDBRANCH   5  25
TORSDOF 10
