REMARK  Name = ZINC22751690
REMARK  9 active torsions:
REMARK  status: ('A' for Active; 'I' for Inactive)
REMARK    1  A    between atoms: C_1  and  C_2
REMARK    2  A    between atoms: C_4  and  C_11
REMARK    3  A    between atoms: C_7  and  N_8
REMARK    4  A    between atoms: C_11  and  O_13
REMARK    5  A    between atoms: O_13  and  C_14
REMARK    6  A    between atoms: C_18  and  C_20
REMARK    7  A    between atoms: C_23  and  C_34
REMARK    8  A    between atoms: C_29  and  N_33
REMARK    9  A    between atoms: C_30  and  C_31
REMARK                            x       y       z     vdW  Elec       q    Type
REMARK                         _______ _______ _______ _____ _____    ______ ____
ROOT
ATOM      1  C   UNL     1      -0.794  -2.037  -1.494  0.00  0.00    +0.102 C 
ATOM      2  C   UNL     1      -1.916  -1.114  -1.096  0.00  0.00    +0.054 A 
ATOM      3  C   UNL     1      -1.903   0.274  -0.932  0.00  0.00    +0.100 A 
ATOM      4  N   UNL     1      -3.115   0.652  -0.572  0.00  0.00    -0.171 NA
ATOM      5  N   UNL     1      -3.928  -0.489  -0.492  0.00  0.00    -0.246 N 
ATOM      6  H   UNL     1      -4.986  -0.392  -0.205  0.00  0.00    +0.192 HD
ATOM      7  C   UNL     1      -3.174  -1.561  -0.813  0.00  0.00    +0.223 A 
ATOM      8  O   UNL     1      -3.516  -2.872  -0.874  0.00  0.00    -0.423 OA
ATOM      9  C   UNL     1      -2.518  -3.776  -0.952  0.00  0.00    +0.200 C 
ATOM     10  C   UNL     1      -1.235  -3.456  -1.233  0.00  0.00    +0.098 C 
ENDROOT
BRANCH   1  15
ATOM     11  C   UNL     1       1.055  -1.319  -4.711  0.00  0.00    +0.132 A 
ATOM     12  C   UNL     1       0.060  -1.538  -5.653  0.00  0.00    +0.046 A 
ATOM     13  C   UNL     1      -1.204  -1.916  -5.246  0.00  0.00    +0.004 A 
ATOM     14  C   UNL     1      -1.478  -2.083  -3.901  0.00  0.00    +0.005 A 
ATOM     15  C   UNL     1      -0.490  -1.861  -2.960  0.00  0.00    -0.031 A 
ATOM     16  C   UNL     1       0.776  -1.482  -3.361  0.00  0.00    +0.051 A 
BRANCH  11  17
ATOM     17  O   UNL     1       2.300  -0.947  -5.108  0.00  0.00    -0.422 OA
BRANCH  17  18
ATOM     18  C   UNL     1       3.263  -1.888  -5.066  0.00  0.00    +0.344 C 
ATOM     19  O   UNL     1       2.980  -3.034  -4.776  0.00  0.00    -0.245 OA
BRANCH  18  23
ATOM     20  C   UNL     1       8.048  -3.207  -5.570  0.00  0.00    +0.046 C 
ATOM     21  C   UNL     1       6.967  -2.158  -5.616  0.00  0.00    -0.019 A 
ATOM     22  C   UNL     1       5.662  -2.501  -5.329  0.00  0.00    +0.020 A 
ATOM     23  C   UNL     1       4.662  -1.528  -5.372  0.00  0.00    +0.060 A 
ATOM     24  C   UNL     1       4.990  -0.213  -5.711  0.00  0.00    +0.017 A 
ATOM     25  C   UNL     1       6.299   0.117  -5.990  0.00  0.00    +0.034 A 
ATOM     26  C   UNL     1       7.286  -0.852  -5.946  0.00  0.00    +0.129 A 
BRANCH  26  27
ATOM     27  N   UNL     1       8.688  -0.491  -6.253  0.00  0.00    +0.057 N 
ATOM     28  O   UNL     1       9.136   0.579  -5.883  0.00  0.00    -0.126 OA
ATOM     29  O   UNL     1       9.393  -1.265  -6.876  0.00  0.00    -0.126 OA
ENDBRANCH  26  27
ENDBRANCH  18  23
ENDBRANCH  17  18
ENDBRANCH  11  17
ENDBRANCH   1  15
BRANCH   3  30
ATOM     30  C   UNL     1      -0.735   1.167  -1.134  0.00  0.00    +0.003 A 
ATOM     31  C   UNL     1      -0.914   2.446  -1.657  0.00  0.00    +0.010 A 
ATOM     32  C   UNL     1       0.177   3.272  -1.843  0.00  0.00    +0.001 A 
ATOM     33  C   UNL     1       1.445   2.832  -1.510  0.00  0.00    +0.000 A 
ATOM     34  C   UNL     1       1.629   1.563  -0.990  0.00  0.00    +0.001 A 
ATOM     35  C   UNL     1       0.545   0.729  -0.801  0.00  0.00    +0.010 A 
ENDBRANCH   3  30
BRANCH   9  36
ATOM     36  N   UNL     1      -2.822  -5.096  -0.734  0.00  0.00    -0.328 N 
ATOM     37  H   UNL     1      -2.032  -5.859  -0.790  0.00  0.00    +0.145 HD
ATOM     38  H   UNL     1      -3.856  -5.391  -0.503  0.00  0.00    +0.145 HD
ENDBRANCH   9  36
BRANCH  10  39
ATOM     39  C   UNL     1      -0.259  -4.502  -1.284  0.00  0.00    +0.101 C 
ATOM     40  N   UNL     1       0.516  -5.332  -1.325  0.00  0.00    -0.191 NA
ENDBRANCH  10  39
TORSDOF 8
