REMARK  Name = ZINC14356741
REMARK  8 active torsions:
REMARK  status: ('A' for Active; 'I' for Inactive)
REMARK    1  A    between atoms: C_4  and  N_30
REMARK    2  A    between atoms: C_5  and  C_7
REMARK    3  A    between atoms: C_8  and  C_9
REMARK    4  A    between atoms: N_11  and  N_12
REMARK    5  A    between atoms: C_13  and  C_15
REMARK    6  A    between atoms: C_18  and  C_21
REMARK    7  A    between atoms: C_21  and  S_22
REMARK    8  A    between atoms: S_22  and  C_23
REMARK                            x       y       z     vdW  Elec       q    Type
REMARK                         _______ _______ _______ _____ _____    ______ ____
ROOT
ATOM      1  N   UNL     1      -1.106   1.805   1.126  0.00  0.00    -0.230 N 
ATOM      2  C   UNL     1      -2.285   1.154   1.161  0.00  0.00    +0.260 C 
ATOM      3  O   UNL     1      -2.324  -0.045   0.963  0.00  0.00    -0.269 OA
ATOM      4  H   UNL     1      -1.075   2.762   1.284  0.00  0.00    +0.173 HD
ENDROOT
BRANCH   2   5
ATOM      5  C   UNL     1      -3.532   1.897   1.441  0.00  0.00    +0.038 A 
ATOM      6  C   UNL     1      -3.491   3.272   1.674  0.00  0.00    +0.013 A 
ATOM      7  C   UNL     1      -4.659   3.961   1.929  0.00  0.00    +0.005 A 
ATOM      8  C   UNL     1      -5.868   3.289   1.964  0.00  0.00    -0.037 A 
ATOM      9  C   UNL     1      -5.915   1.925   1.739  0.00  0.00    +0.005 A 
ATOM     10  C   UNL     1      -4.755   1.225   1.478  0.00  0.00    +0.013 A 
BRANCH   8  11
ATOM     11  C   UNL     1      -7.139   4.047   2.249  0.00  0.00    +0.109 C 
BRANCH  11  12
ATOM     12  S   UNL     1      -7.443   4.068   4.037  0.00  0.00    -0.121 S 
BRANCH  12  13
ATOM     13  C   UNL     1      -8.943   4.977   4.204  0.00  0.00    +0.008 A 
ATOM     14  C   UNL     1      -9.580   5.482   3.077  0.00  0.00    +0.016 A 
ATOM     15  C   UNL     1     -10.758   6.190   3.211  0.00  0.00    +0.021 A 
ATOM     16  C   UNL     1     -11.299   6.407   4.466  0.00  0.00    +0.041 A 
ATOM     17  C   UNL     1     -10.663   5.910   5.591  0.00  0.00    +0.021 A 
ATOM     18  C   UNL     1      -9.488   5.196   5.463  0.00  0.00    +0.016 A 
ATOM     19 CL   UNL     1     -12.777   7.302   4.631  0.00  0.00    -0.084 Cl
ENDBRANCH  12  13
ENDBRANCH  11  12
ENDBRANCH   8  11
ENDBRANCH   2   5
BRANCH   1  22
ATOM     20  C   UNL     1       1.254   1.753   0.821  0.00  0.00    +0.253 C 
ATOM     21  O   UNL     1       1.293   2.953   1.020  0.00  0.00    -0.269 OA
ATOM     22  N   UNL     1       0.076   1.101   0.862  0.00  0.00    -0.231 N 
ATOM     23  H   UNL     1       0.045   0.144   0.704  0.00  0.00    +0.173 HD
BRANCH  20  25
ATOM     24  C   UNL     1       3.668   1.671   0.498  0.00  0.00    +0.015 C 
ATOM     25  C   UNL     1       2.489   1.018   0.539  0.00  0.00    +0.069 C 
BRANCH  24  30
ATOM     26  C   UNL     1       6.100  -1.149   0.042  0.00  0.00    +0.001 A 
ATOM     27  C   UNL     1       7.244  -0.459  -0.320  0.00  0.00    +0.002 A 
ATOM     28  C   UNL     1       7.228   0.921  -0.417  0.00  0.00    +0.033 A 
ATOM     29  C   UNL     1       6.067   1.620  -0.158  0.00  0.00    +0.133 A 
ATOM     30  C   UNL     1       4.909   0.931   0.214  0.00  0.00    +0.005 A 
ATOM     31  C   UNL     1       4.934  -0.464   0.310  0.00  0.00    +0.010 A 
BRANCH  29  32
ATOM     32  N   UNL     1       6.050   3.096  -0.268  0.00  0.00    +0.057 N 
ATOM     33  O   UNL     1       5.066   3.662  -0.710  0.00  0.00    -0.126 OA
ATOM     34  O   UNL     1       7.020   3.744   0.082  0.00  0.00    -0.126 OA
ENDBRANCH  29  32
ENDBRANCH  24  30
ENDBRANCH  20  25
ENDBRANCH   1  22
TORSDOF 8
