REMARK  Name = ZINC09665236
REMARK  7 active torsions:
REMARK  status: ('A' for Active; 'I' for Inactive)
REMARK    1  A    between atoms: C_4  and  C_7
REMARK    2  A    between atoms: C_7  and  N_63
REMARK    3  A    between atoms: C_10  and  N_13
REMARK    4  A    between atoms: C_26  and  S_27
REMARK    5  A    between atoms: S_27  and  C_28
REMARK    6  A    between atoms: C_28  and  C_29
REMARK    7  A    between atoms: C_34  and  C_35
REMARK                            x       y       z     vdW  Elec       q    Type
REMARK                         _______ _______ _______ _____ _____    ______ ____
ROOT
ATOM      1  N   UNL     1       0.522   8.074   0.038  0.00  0.00    -0.284 N 
ATOM      2  C   UNL     1       1.585   7.236   0.024  0.00  0.00    +0.269 A 
ATOM      3  O   UNL     1       2.725   7.670   0.016  0.00  0.00    -0.266 OA
ATOM      4  C   UNL     1       1.341   5.859   0.019  0.00  0.00    +0.103 A 
ATOM      5  C   UNL     1       0.043   5.351   0.029  0.00  0.00    +0.094 A 
ATOM      6  C   UNL     1      -0.078   3.882   0.023  0.00  0.00    +0.015 A 
ATOM      7  C   UNL     1      -1.268   3.118   0.029  0.00  0.00    +0.011 A 
ATOM      8  C   UNL     1      -1.221   1.759   0.017  0.00  0.00    +0.001 A 
ATOM      9  C   UNL     1      -0.013   1.076   0.008  0.00  0.00    +0.001 A 
ATOM     10  C   UNL     1       1.170   1.787   0.001  0.00  0.00    +0.016 A 
ATOM     11  C   UNL     1       1.133   3.168   0.008  0.00  0.00    +0.022 A 
ATOM     12  S   UNL     1       2.385   4.426   0.002  0.00  0.00    -0.081 S 
ATOM     13  N   UNL     1      -0.968   6.263   0.043  0.00  0.00    -0.222 NA
ATOM     14  C   UNL     1      -0.739   7.551   0.046  0.00  0.00    +0.173 A 
ENDROOT
BRANCH   1  17
ATOM     15  C   UNL     1       1.779  11.435   1.255  0.00  0.00    -0.076 C 
ATOM     16  C   UNL     1       1.520   9.927   1.286  0.00  0.00    +0.006 C 
ATOM     17  C   UNL     1       0.722   9.525   0.043  0.00  0.00    +0.089 C 
ATOM     18  C   UNL     1       1.498   9.939  -1.210  0.00  0.00    +0.006 C 
ATOM     19  C   UNL     1       1.758  11.447  -1.168  0.00  0.00    -0.076 C 
ATOM     20  N   UNL     1       2.551  11.765   0.039  0.00  0.00    +0.382 N 
ATOM     21  H   UNL     1       3.412  11.204   0.029  0.00  0.00    -0.081 HD
BRANCH  20  22
ATOM     22  C   UNL     1       2.912  13.197   0.043  0.00  0.00    -0.043 C 
BRANCH  22  26
ATOM     23  C   UNL     1       4.448  14.265  -3.797  0.00  0.00    +0.000 A 
ATOM     24  C   UNL     1       3.097  14.394  -3.533  0.00  0.00    +0.000 A 
ATOM     25  C   UNL     1       2.600  14.048  -2.291  0.00  0.00    +0.002 A 
ATOM     26  C   UNL     1       3.454  13.574  -1.312  0.00  0.00    -0.064 A 
ATOM     27  C   UNL     1       4.805  13.451  -1.575  0.00  0.00    +0.002 A 
ATOM     28  C   UNL     1       5.302  13.792  -2.819  0.00  0.00    +0.000 A 
ENDBRANCH  22  26
ENDBRANCH  20  22
ENDBRANCH   1  17
BRANCH  14  29
ATOM     29  S   UNL     1      -2.112   8.654   0.064  0.00  0.00    -0.083 S 
BRANCH  29  30
ATOM     30  C   UNL     1      -3.474   7.461   0.071  0.00  0.00    +0.113 C 
BRANCH  30  31
ATOM     31  C   UNL     1      -4.788   8.199   0.087  0.00  0.00    -0.020 A 
ATOM     32  C   UNL     1      -5.382   8.527   1.288  0.00  0.00    +0.006 A 
ATOM     33  C   UNL     1      -6.587   9.207   1.304  0.00  0.00    +0.000 A 
ATOM     34  C   UNL     1      -7.208   9.556   0.117  0.00  0.00    +0.001 A 
ATOM     35  C   UNL     1      -6.627   9.230  -1.090  0.00  0.00    +0.019 A 
ATOM     36  C   UNL     1      -5.409   8.547  -1.114  0.00  0.00    +0.056 A 
BRANCH  36  37
ATOM     37  C   UNL     1      -4.800   8.205  -2.364  0.00  0.00    +0.099 C 
ATOM     38  N   UNL     1      -4.317   7.933  -3.356  0.00  0.00    -0.191 NA
ENDBRANCH  36  37
ENDBRANCH  30  31
ENDBRANCH  29  30
ENDBRANCH  14  29
TORSDOF 7
