REMARK  Name = ZINC06526531
REMARK  7 active torsions:
REMARK  status: ('A' for Active; 'I' for Inactive)
REMARK    1  A    between atoms: C_3  and  C_10
REMARK    2  A    between atoms: C_5  and  N_7
REMARK    3  A    between atoms: N_12  and  N_13
REMARK    4  A    between atoms: N_13  and  C_14
REMARK    5  A    between atoms: C_14  and  N_16
REMARK    6  A    between atoms: C_17  and  C_19
REMARK    7  A    between atoms: C_20  and  C_21
REMARK                            x       y       z     vdW  Elec       q    Type
REMARK                         _______ _______ _______ _____ _____    ______ ____
ROOT
ATOM      1  N   UNL     1       4.848   4.222  -0.023  0.00  0.00    -0.245 N 
ATOM      2  H   UNL     1       5.693   3.746  -0.034  0.00  0.00    +0.172 HD
ENDROOT
BRANCH   1   5
ATOM      3  C   UNL     1       3.657   2.160  -0.022  0.00  0.00    +0.260 C 
ATOM      4  O   UNL     1       4.716   1.564  -0.035  0.00  0.00    -0.269 OA
ATOM      5  N   UNL     1       3.642   3.508  -0.015  0.00  0.00    -0.231 N 
ATOM      6  H   UNL     1       2.797   3.984  -0.004  0.00  0.00    +0.173 HD
BRANCH   3   9
ATOM      7  C   UNL     1      -0.017   1.379   0.010  0.00  0.00    +0.003 A 
ATOM      8  C   UNL     1       1.167   2.088   0.002  0.00  0.00    +0.013 A 
ATOM      9  C   UNL     1       2.385   1.407  -0.013  0.00  0.00    +0.040 A 
ATOM     10  C   UNL     1       2.397   0.011  -0.021  0.00  0.00    +0.045 A 
ATOM     11  C   UNL     1       1.206  -0.686  -0.013  0.00  0.00    +0.127 A 
ATOM     12  C   UNL     1       0.002  -0.004   0.002  0.00  0.00    +0.033 A 
BRANCH  11  13
ATOM     13  N   UNL     1       1.217  -2.166  -0.021  0.00  0.00    +0.056 N 
ATOM     14  O   UNL     1       2.268  -2.763  -0.035  0.00  0.00    -0.126 OA
ATOM     15  O   UNL     1       0.174  -2.778  -0.015  0.00  0.00    -0.126 OA
ENDBRANCH  11  13
ENDBRANCH   3   9
ENDBRANCH   1   5
BRANCH   1  16
ATOM     16  C   UNL     1       4.833   5.569  -0.016  0.00  0.00    +0.153 C 
ATOM     17  S   UNL     1       6.306   6.442  -0.026  0.00  0.00    -0.017 S 
BRANCH  16  18
ATOM     18  N   UNL     1       3.658   6.230  -0.001  0.00  0.00    -0.263 N 
ATOM     19  C   UNL     1       3.643   7.578   0.006  0.00  0.00    +0.242 C 
ATOM     20  O   UNL     1       4.691   8.198  -0.001  0.00  0.00    -0.270 OA
ATOM     21  H   UNL     1       2.824   5.736   0.004  0.00  0.00    +0.157 HD
BRANCH  19  22
ATOM     22  C   UNL     1       2.412   8.271   0.021  0.00  0.00    +0.069 C 
ATOM     23  C   UNL     1       2.397   9.628   0.028  0.00  0.00    +0.020 C 
BRANCH  23  24
ATOM     24  C   UNL     1       1.164  10.322   0.044  0.00  0.00    +0.012 A 
ATOM     25  C   UNL     1       0.929  11.693   0.047  0.00  0.00    +0.015 A 
ATOM     26  C   UNL     1      -0.392  12.070   0.064  0.00  0.00    +0.008 A 
ATOM     27  C   UNL     1      -1.352  11.112   0.075  0.00  0.00    +0.046 A 
ATOM     28  S   UNL     1      -0.494   9.668   0.056  0.00  0.00    -0.097 S 
ENDBRANCH  23  24
ENDBRANCH  19  22
ENDBRANCH  16  18
ENDBRANCH   1  16
TORSDOF 7
