REMARK  Name = ZINC04553448
REMARK  11 active torsions:
REMARK  status: ('A' for Active; 'I' for Inactive)
REMARK    1  A    between atoms: C_1  and  C_2
REMARK    2  A    between atoms: C_2  and  C_3
REMARK    3  A    between atoms: C_3  and  C_4
REMARK    4  A    between atoms: C_3  and  C_5
REMARK    5  A    between atoms: C_3  and  C_6
REMARK    6  A    between atoms: C_15  and  O_30
REMARK    7  A    between atoms: C_17  and  C_20
REMARK    8  A    between atoms: C_23  and  O_29
REMARK    9  A    between atoms: C_24  and  O_26
REMARK   10  A    between atoms: O_26  and  C_27
REMARK   11  A    between atoms: C_27  and  C_28
REMARK                            x       y       z     vdW  Elec       q    Type
REMARK                         _______ _______ _______ _____ _____    ______ ____
ROOT
ATOM      1  C   UNL     1       0.763  -2.041   1.233  0.00  0.00    -0.000 C 
ATOM      2  C   UNL     1       1.508  -2.550   2.470  0.00  0.00    +0.009 C 
ATOM      3  C   UNL     1       1.324  -4.064   2.602  0.00  0.00    +0.037 C 
ATOM      4  C   UNL     1       1.701  -4.720   1.281  0.00  0.00    -0.023 A 
ATOM      5  C   UNL     1       1.762  -4.001   0.136  0.00  0.00    -0.004 A 
ATOM      6  S   UNL     1       2.231  -5.173  -1.108  0.00  0.00    -0.078 S 
ATOM      7  C   UNL     1       2.337  -6.538  -0.173  0.00  0.00    +0.080 A 
ATOM      8  C   UNL     1       2.020  -6.127   1.127  0.00  0.00    +0.068 A 
ATOM      9  C   UNL     1       2.050  -7.157   2.198  0.00  0.00    +0.220 C 
ATOM     10  N   UNL     1       2.121  -8.408   1.833  0.00  0.00    -0.223 NA
ATOM     11  C   UNL     1       2.108  -8.867   0.450  0.00  0.00    +0.224 C 
ATOM     12  N   UNL     1       2.647  -7.847  -0.467  0.00  0.00    -0.313 N 
ATOM     13  C   UNL     1       1.487  -2.539  -0.026  0.00  0.00    +0.046 C 
ATOM     14  H   UNL     1       3.191  -8.084  -1.235  0.00  0.00    +0.149 HD
ENDROOT
BRANCH  11  15
ATOM     15  C   UNL     1       0.690  -9.185   0.050  0.00  0.00    -0.002 A 
ATOM     16  C   UNL     1       0.296  -9.042  -1.267  0.00  0.00    +0.011 A 
ATOM     17  C   UNL     1      -1.003  -9.332  -1.639  0.00  0.00    +0.049 A 
ATOM     18  C   UNL     1      -1.914  -9.768  -0.690  0.00  0.00    +0.158 A 
ATOM     19  C   UNL     1      -1.518  -9.913   0.636  0.00  0.00    +0.162 A 
ATOM     20  C   UNL     1      -0.212  -9.625   1.001  0.00  0.00    +0.056 A 
BRANCH  18  21
ATOM     21  O   UNL     1      -3.193 -10.054  -1.054  0.00  0.00    -0.503 OA
ATOM     22  H   UNL     1      -3.330 -10.973  -1.320  0.00  0.00    +0.292 HD
ENDBRANCH  18  21
BRANCH  19  23
ATOM     23  O   UNL     1      -2.408 -10.340   1.571  0.00  0.00    -0.489 OA
BRANCH  23  24
ATOM     24  C   UNL     1      -1.931 -10.465   2.912  0.00  0.00    +0.226 C 
ATOM     25  C   UNL     1      -3.066 -10.954   3.814  0.00  0.00    +0.048 C 
ENDBRANCH  23  24
ENDBRANCH  19  23
ENDBRANCH  11  15
BRANCH   1  26
ATOM     26  C   UNL     1       0.742  -0.511   1.242  0.00  0.00    -0.032 C 
ATOM     27  C   UNL     1       2.178   0.019   1.231  0.00  0.00    +0.011 C 
ATOM     28  C   UNL     1       0.026  -0.018   2.500  0.00  0.00    +0.011 C 
BRANCH  26  30
ATOM     29  C   UNL     1      -0.019   1.526   0.010  0.00  0.00    +0.004 C 
ATOM     30  C   UNL     1       0.002  -0.004   0.002  0.00  0.00    +0.003 C 
ENDBRANCH  26  30
ENDBRANCH   1  26
BRANCH   9  31
ATOM     31  O   UNL     1       2.005  -6.809   3.505  0.00  0.00    -0.492 OA
ATOM     32  H   UNL     1       2.030  -7.561   4.113  0.00  0.00    +0.294 HD
ENDBRANCH   9  31
TORSDOF 7
