REMARK  Name = ZINC09328008
REMARK  6 active torsions:
REMARK  status: ('A' for Active; 'I' for Inactive)
REMARK    1  A    between atoms: C_4  and  C_7
REMARK    2  A    between atoms: N_12  and  C_13
REMARK    3  A    between atoms: C_13  and  C_15
REMARK    4  A    between atoms: C_15  and  C_16
REMARK    5  A    between atoms: C_16  and  C_17
REMARK    6  A    between atoms: C_24  and  N_65
REMARK                            x       y       z     vdW  Elec       q    Type
REMARK                         _______ _______ _______ _____ _____    ______ ____
ROOT
ATOM      1  C   UNL     1      -4.754   1.125  -8.318  0.00  0.00    +0.107 C 
ENDROOT
BRANCH   1   2
ATOM      2  C   UNL     1      -4.224   1.079  -6.908  0.00  0.00    +0.239 C 
ATOM      3  O   UNL     1      -3.543   0.139  -6.545  0.00  0.00    -0.274 OA
BRANCH   2   9
ATOM      4  C   UNL     1      -2.917   1.562  -2.442  0.00  0.00    +0.105 A 
ATOM      5  N   UNL     1      -3.616   2.651  -2.589  0.00  0.00    -0.169 NA
ATOM      6  N   UNL     1      -4.200   2.916  -3.808  0.00  0.00    -0.256 N 
ATOM      7  H   UNL     1      -4.722   3.723  -3.943  0.00  0.00    +0.191 HD
ATOM      8  C   UNL     1      -4.033   2.022  -4.813  0.00  0.00    +0.181 A 
ATOM      9  N   UNL     1      -4.502   2.063  -6.063  0.00  0.00    -0.155 NA
ATOM     10  S   UNL     1      -3.050   0.810  -4.054  0.00  0.00    -0.036 S 
BRANCH   4  14
ATOM     11  C   UNL     1      -0.729   1.579   1.267  0.00  0.00    +0.000 C 
ATOM     12  C   UNL     1      -0.013   1.086   0.008  0.00  0.00    +0.001 C 
ATOM     13  C   UNL     1      -0.753   1.593  -1.232  0.00  0.00    +0.010 C 
ATOM     14  C   UNL     1      -2.188   1.063  -1.221  0.00  0.00    +0.047 C 
ATOM     15  C   UNL     1      -2.904   1.556   0.038  0.00  0.00    +0.010 C 
ATOM     16  C   UNL     1      -2.164   1.050   1.278  0.00  0.00    +0.001 C 
ENDBRANCH   4  14
ENDBRANCH   2   9
ENDBRANCH   1   2
BRANCH   1  17
ATOM     17  C   UNL     1      -4.292  -0.120  -9.078  0.00  0.00    +0.105 C 
BRANCH  17  18
ATOM     18  C   UNL     1      -4.822  -0.073 -10.488  0.00  0.00    +0.216 C 
ATOM     19  O   UNL     1      -5.501   0.863 -10.850  0.00  0.00    -0.276 OA
ATOM     20  N   UNL     1      -4.540  -1.073 -11.347  0.00  0.00    -0.305 N 
ATOM     21  C   UNL     1      -3.712  -2.216 -10.930  0.00  0.00    +0.089 C 
ATOM     22  C   UNL     1      -4.461  -3.509 -11.289  0.00  0.00    -0.059 C 
ATOM     23  C   UNL     1      -5.737  -2.384 -13.017  0.00  0.00    -0.059 C 
ATOM     24  C   UNL     1      -5.046  -1.048 -12.727  0.00  0.00    +0.089 C 
ATOM     25  N   UNL     1      -4.788  -3.482 -12.731  0.00  0.00    +0.384 N 
ATOM     26  H   UNL     1      -3.925  -3.323 -13.265  0.00  0.00    -0.081 HD
BRANCH  25  27
ATOM     27  C   UNL     1      -5.373  -4.775 -13.140  0.00  0.00    -0.068 C 
ATOM     28  C   UNL     1      -6.625  -5.084 -12.316  0.00  0.00    -0.015 C 
ATOM     29  C   UNL     1      -7.209  -6.427 -12.759  0.00  0.00    -0.002 C 
ATOM     30  C   UNL     1      -6.171  -7.530 -12.543  0.00  0.00    -0.000 C 
ATOM     31  C   UNL     1      -4.919  -7.221 -13.367  0.00  0.00    -0.002 C 
ATOM     32  C   UNL     1      -4.336  -5.878 -12.924  0.00  0.00    -0.015 C 
ENDBRANCH  25  27
ENDBRANCH  17  18
ENDBRANCH   1  17
TORSDOF 6
