REMARK  Name = ZINC21084980
REMARK  7 active torsions:
REMARK  status: ('A' for Active; 'I' for Inactive)
REMARK    1  A    between atoms: C_4  and  O_21
REMARK    2  A    between atoms: C_5  and  C_7
REMARK    3  A    between atoms: N_8  and  N_9
REMARK    4  A    between atoms: C_12  and  S_15
REMARK    5  A    between atoms: S_15  and  C_16
REMARK    6  A    between atoms: O_21  and  C_22
REMARK    7  A    between atoms: C_22  and  C_23
REMARK                            x       y       z     vdW  Elec       q    Type
REMARK                         _______ _______ _______ _____ _____    ______ ____
ROOT
ATOM      1  C   UNL     1      -2.500   1.010   0.019  0.00  0.00    +0.142 C 
ATOM      2  N   UNL     1      -3.631   1.649   0.028  0.00  0.00    -0.187 NA
ENDROOT
BRANCH   2   3
ATOM      3  N   UNL     1      -4.838   0.937   0.030  0.00  0.00    -0.204 N 
ATOM      4  C   UNL     1      -6.045   1.619   0.039  0.00  0.00    +0.255 A 
ATOM      5  N   UNL     1      -7.289   1.052   0.036  0.00  0.00    -0.187 NA
ATOM      6  C   UNL     1      -8.213   2.058   0.051  0.00  0.00    +0.186 A 
ATOM      7  N   UNL     1      -7.568   3.200   0.054  0.00  0.00    -0.252 N 
ATOM      8  N   UNL     1      -6.195   2.922   0.047  0.00  0.00    -0.134 NA
ATOM      9  H   UNL     1      -4.827  -0.163   0.024  0.00  0.00    +0.177 HD
ATOM     10  H   UNL     1      -8.127   4.147   0.061  0.00  0.00    +0.191 HD
BRANCH   6  11
ATOM     11  S   UNL     1      -9.963   1.857   0.057  0.00  0.00    -0.083 S 
BRANCH  11  12
ATOM     12  C   UNL     1     -10.600   3.556   0.069  0.00  0.00    +0.054 C 
ATOM     13  C   UNL     1     -10.252   4.241   1.406  0.00  0.00    +0.014 C 
ATOM     14  C   UNL     1     -11.493   5.114   1.719  0.00  0.00    +0.001 C 
ATOM     15  C   UNL     1     -12.668   4.223   1.245  0.00  0.00    +0.001 C 
ATOM     16  C   UNL     1     -12.135   3.544  -0.034  0.00  0.00    +0.014 C 
ENDBRANCH  11  12
ENDBRANCH   6  11
ENDBRANCH   2   3
BRANCH   1  21
ATOM     17  C   UNL     1       1.172   1.783   0.000  0.00  0.00    +0.001 A 
ATOM     18  C   UNL     1       1.158   3.167   0.008  0.00  0.00    +0.004 A 
ATOM     19  C   UNL     1      -0.041   3.854   0.023  0.00  0.00    +0.046 A 
ATOM     20  C   UNL     1      -1.240   3.160   0.031  0.00  0.00    +0.130 A 
ATOM     21  C   UNL     1      -1.231   1.759   0.017  0.00  0.00    +0.036 A 
ATOM     22  C   UNL     1      -0.013   1.076   0.008  0.00  0.00    +0.013 A 
BRANCH  20  23
ATOM     23  O   UNL     1      -2.418   3.835   0.046  0.00  0.00    -0.487 OA
BRANCH  23  24
ATOM     24  C   UNL     1      -2.349   5.262   0.052  0.00  0.00    +0.264 C 
BRANCH  24  25
ATOM     25  C   UNL     1      -3.744   5.833   0.069  0.00  0.00    -0.010 A 
ATOM     26  C   UNL     1      -4.393   6.106  -1.121  0.00  0.00    +0.008 A 
ATOM     27  C   UNL     1      -5.674   6.624  -1.106  0.00  0.00    +0.020 A 
ATOM     28  C   UNL     1      -6.302   6.880   0.100  0.00  0.00    +0.041 A 
ATOM     29  C   UNL     1      -5.650   6.613   1.290  0.00  0.00    +0.020 A 
ATOM     30  C   UNL     1      -4.371   6.089   1.274  0.00  0.00    +0.008 A 
ATOM     31 CL   UNL     1      -7.909   7.537   0.119  0.00  0.00    -0.084 Cl
ENDBRANCH  24  25
ENDBRANCH  23  24
ENDBRANCH  20  23
ENDBRANCH   1  21
TORSDOF 7
