REMARK  Name = ZINC15316540
REMARK  6 active torsions:
REMARK  status: ('A' for Active; 'I' for Inactive)
REMARK    1  A    between atoms: C_1  and  C_2
REMARK    2  A    between atoms: N_11  and  C_15
REMARK    3  A    between atoms: C_15  and  C_16
REMARK    4  A    between atoms: C_16  and  N_18
REMARK    5  A    between atoms: N_20  and  C_24
REMARK    6  A    between atoms: C_24  and  C_25
REMARK                            x       y       z     vdW  Elec       q    Type
REMARK                         _______ _______ _______ _____ _____    ______ ____
ROOT
ATOM      1  C   UNL     1       2.670   4.198   3.848  0.00  0.00    +0.256 C 
ATOM      2  O   UNL     1       2.313   3.052   4.046  0.00  0.00    -0.272 OA
ENDROOT
BRANCH   1   3
ATOM      3  N   UNL     1       3.790   4.647   4.398  0.00  0.00    -0.155 NA
ATOM      4  C   UNL     1       4.526   3.842   5.168  0.00  0.00    +0.166 A 
ATOM      5  N   UNL     1       5.694   4.111   5.816  0.00  0.00    -0.324 N 
ATOM      6  C   UNL     1       6.277   3.131   6.554  0.00  0.00    +0.095 A 
ATOM      7  C   UNL     1       5.683   1.935   6.617  0.00  0.00    +0.066 A 
ATOM      8  S   UNL     1       4.235   2.189   5.606  0.00  0.00    -0.061 S 
BRANCH   5   9
ATOM      9  C   UNL     1       6.312   5.436   5.718  0.00  0.00    +0.160 C 
BRANCH   9  10
ATOM     10  C   UNL     1       7.077   5.728   6.983  0.00  0.00    -0.009 A 
ATOM     11  C   UNL     1       8.449   5.562   7.015  0.00  0.00    +0.008 A 
ATOM     12  C   UNL     1       9.152   5.830   8.175  0.00  0.00    +0.020 A 
ATOM     13  C   UNL     1       8.482   6.265   9.305  0.00  0.00    +0.042 A 
ATOM     14  C   UNL     1       7.109   6.431   9.274  0.00  0.00    +0.040 A 
ATOM     15  C   UNL     1       6.407   6.168   8.111  0.00  0.00    +0.047 A 
ATOM     16 CL   UNL     1       4.685   6.382   8.069  0.00  0.00    -0.083 Cl
ATOM     17 CL   UNL     1       9.364   6.601  10.762  0.00  0.00    -0.083 Cl
ENDBRANCH   9  10
ENDBRANCH   5   9
ENDBRANCH   1   3
BRANCH   1  18
ATOM     18  C   UNL     1       1.839   5.107   2.979  0.00  0.00    +0.215 C 
BRANCH  18  28
ATOM     19  C   UNL     1      -1.478   5.155   0.038  0.00  0.00    +0.010 C 
ATOM     20  C   UNL     1      -1.484   3.625   0.025  0.00  0.00    +0.018 C 
ATOM     21  C   UNL     1      -0.764   3.123  -1.229  0.00  0.00    +0.006 C 
ATOM     22  C   UNL     1      -0.753   1.593  -1.231  0.00  0.00    +0.000 C 
ATOM     23  C   UNL     1      -0.013   1.086   0.008  0.00  0.00    +0.003 C 
ATOM     24  C   UNL     1      -0.730   1.580   1.267  0.00  0.00    +0.035 C 
ATOM     25  C   UNL     1      -0.771   3.104   1.267  0.00  0.00    +0.115 C 
ATOM     26  C   UNL     1       0.628   3.670   1.349  0.00  0.00    +0.247 C 
ATOM     27  O   UNL     1       1.529   3.518   0.553  0.00  0.00    -0.273 OA
ATOM     28  N   UNL     1       0.663   4.380   2.496  0.00  0.00    -0.215 N 
ATOM     29  C   UNL     1      -0.511   4.337   3.139  0.00  0.00    +0.310 C 
ATOM     30  O   UNL     1      -0.725   4.899   4.194  0.00  0.00    -0.252 OA
ATOM     31  N   UNL     1      -1.428   3.600   2.483  0.00  0.00    -0.285 N 
ATOM     32  H   UNL     1      -2.342   3.431   2.760  0.00  0.00    +0.151 HD
ENDBRANCH  18  28
ENDBRANCH   1  18
TORSDOF 5
