REMARK  Name = ZINC33028438
REMARK  9 active torsions:
REMARK  status: ('A' for Active; 'I' for Inactive)
REMARK    1  A    between atoms: C_1  and  C_2
REMARK    2  A    between atoms: N_4  and  C_5
REMARK    3  A    between atoms: C_5  and  C_7
REMARK    4  A    between atoms: C_5  and  C_18
REMARK    5  A    between atoms: C_7  and  C_8
REMARK    6  A    between atoms: N_20  and  C_21
REMARK    7  A    between atoms: C_21  and  C_22
REMARK    8  A    between atoms: C_22  and  C_24
REMARK    9  A    between atoms: C_22  and  N_31
REMARK                            x       y       z     vdW  Elec       q    Type
REMARK                         _______ _______ _______ _____ _____    ______ ____
ROOT
ATOM      1  C   UNL     1       4.490   6.478   1.822  0.00  0.00    +0.234 C 
ATOM      2  O   UNL     1       3.989   6.533   2.925  0.00  0.00    -0.274 OA
ATOM      3  N   UNL     1       4.012   5.612   0.907  0.00  0.00    -0.315 N 
ATOM      4  H   UNL     1       4.467   5.561  -0.093  0.00  0.00    +0.149 HD
ENDROOT
BRANCH   1   5
ATOM      5  C   UNL     1       5.648   7.378   1.475  0.00  0.00    +0.163 C 
BRANCH   5   9
ATOM      6  C   UNL     1       6.219   9.066   4.863  0.00  0.00    +0.109 C 
ATOM      7  C   UNL     1       5.568   8.573   3.596  0.00  0.00    +0.211 C 
ATOM      8  O   UNL     1       4.401   8.822   3.378  0.00  0.00    -0.276 OA
ATOM      9  N   UNL     1       6.282   7.856   2.706  0.00  0.00    -0.304 N 
ATOM     10  H   UNL     1       7.340   7.630   2.904  0.00  0.00    +0.149 HD
ENDBRANCH   5   9
BRANCH   5  11
ATOM     11  C   UNL     1       5.140   8.572   0.665  0.00  0.00    +0.069 C 
BRANCH  11  12
ATOM     12  C   UNL     1       6.311   9.407   0.213  0.00  0.00    -0.020 A 
ATOM     13  C   UNL     1       6.801  10.495   0.829  0.00  0.00    +0.087 A 
ATOM     14  N   UNL     1       7.868  10.986   0.127  0.00  0.00    -0.360 N 
ATOM     15  H   UNL     1       8.402  11.877   0.491  0.00  0.00    +0.165 HD
ATOM     16  C   UNL     1       8.091  10.213  -0.990  0.00  0.00    +0.047 A 
ATOM     17  C   UNL     1       7.125   9.189  -0.985  0.00  0.00    +0.003 A 
ATOM     18  C   UNL     1       7.109   8.243  -2.011  0.00  0.00    +0.010 A 
ATOM     19  C   UNL     1       8.032   8.315  -3.015  0.00  0.00    +0.001 A 
ATOM     20  C   UNL     1       8.986   9.322  -3.025  0.00  0.00    +0.002 A 
ATOM     21  C   UNL     1       9.021  10.267  -2.022  0.00  0.00    +0.026 A 
ENDBRANCH  11  12
ENDBRANCH   5  11
ENDBRANCH   1   5
BRANCH   3  22
ATOM     22  C   UNL     1       2.887   4.737   1.245  0.00  0.00    +0.093 C 
BRANCH  22  23
ATOM     23  C   UNL     1       2.650   3.746   0.104  0.00  0.00    -0.019 C 
BRANCH  23  24
ATOM     24  C   UNL     1       1.408   2.941   0.386  0.00  0.00    -0.041 A 
ATOM     25  C   UNL     1       1.502   1.734   1.051  0.00  0.00    +0.003 A 
ATOM     26  C   UNL     1       0.362   0.996   1.310  0.00  0.00    +0.000 A 
ATOM     27  C   UNL     1      -0.872   1.463   0.899  0.00  0.00    +0.001 A 
ATOM     28  C   UNL     1      -0.969   2.673   0.239  0.00  0.00    +0.020 A 
ATOM     29  C   UNL     1       0.172   3.412  -0.021  0.00  0.00    +0.043 A 
ATOM     30 CL   UNL     1       0.052   4.929  -0.856  0.00  0.00    -0.083 Cl
ENDBRANCH  23  24
BRANCH  23  31
ATOM     31  N   UNL     1       3.804   2.843  -0.007  0.00  0.00    +0.385 N 
ATOM     32  C   UNL     1       3.538   1.758  -0.987  0.00  0.00    -0.078 C 
ATOM     33  C   UNL     1       4.957   1.262  -1.360  0.00  0.00    -0.020 C 
ATOM     34  C   UNL     1       5.785   2.567  -1.383  0.00  0.00    -0.020 C 
ATOM     35  C   UNL     1       4.993   3.561  -0.514  0.00  0.00    -0.078 C 
ATOM     36  H   UNL     1       3.973   2.447   1.005  0.00  0.00    -0.081 HD
ENDBRANCH  23  31
ENDBRANCH  22  23
ENDBRANCH   3  22
TORSDOF 8
