REMARK  Name = ZINC03405974
REMARK  9 active torsions:
REMARK  status: ('A' for Active; 'I' for Inactive)
REMARK    1  A    between atoms: C_1  and  O_2
REMARK    2  A    between atoms: O_2  and  C_3
REMARK    3  A    between atoms: C_6  and  C_9
REMARK    4  A    between atoms: C_12  and  S_15
REMARK    5  A    between atoms: N_13  and  N_14
REMARK    6  A    between atoms: S_15  and  C_16
REMARK    7  A    between atoms: C_16  and  C_17
REMARK    8  A    between atoms: N_19  and  C_20
REMARK    9  A    between atoms: C_21  and  C_30
REMARK                            x       y       z     vdW  Elec       q    Type
REMARK                         _______ _______ _______ _____ _____    ______ ____
ROOT
ATOM      1  S   UNL     1       0.287   1.712   0.435  0.00  0.00    -0.075 S 
ENDROOT
BRANCH   1   5
ATOM      2  C   UNL     1      -0.679  -2.019  -0.204  0.00  0.00    +0.182 A 
ATOM      3  N   UNL     1       0.627  -2.077  -0.079  0.00  0.00    -0.127 NA
ATOM      4  N   UNL     1       1.099  -0.901   0.134  0.00  0.00    -0.121 NA
ATOM      5  C   UNL     1       0.123  -0.021   0.168  0.00  0.00    +0.209 A 
ATOM      6  N   UNL     1      -1.042  -0.702  -0.049  0.00  0.00    -0.224 N 
BRANCH   2  10
ATOM      7  C   UNL     1      -3.291  -5.288  -0.944  0.00  0.00    +0.120 A 
ATOM      8  C   UNL     1      -3.730  -3.989  -1.159  0.00  0.00    +0.046 A 
ATOM      9  C   UNL     1      -2.886  -2.925  -0.920  0.00  0.00    +0.015 A 
ATOM     10  C   UNL     1      -1.587  -3.157  -0.461  0.00  0.00    +0.021 A 
ATOM     11  C   UNL     1      -1.148  -4.465  -0.251  0.00  0.00    +0.015 A 
ATOM     12  C   UNL     1      -2.000  -5.523  -0.487  0.00  0.00    +0.046 A 
BRANCH   7  14
ATOM     13  C   UNL     1      -3.609  -7.644  -0.939  0.00  0.00    +0.277 C 
ATOM     14  O   UNL     1      -4.125  -6.334  -1.181  0.00  0.00    -0.495 OA
ENDBRANCH   7  14
ENDBRANCH   2  10
BRANCH   6  15
ATOM     15  N   UNL     1      -2.304  -0.181  -0.101  0.00  0.00    -0.295 N 
ATOM     16  H   UNL     1      -2.460   0.898   0.039  0.00  0.00    +0.163 HD
ATOM     17  H   UNL     1      -3.164  -0.842  -0.284  0.00  0.00    +0.163 HD
ENDBRANCH   6  15
ENDBRANCH   1   5
BRANCH   1  18
ATOM     18  C   UNL     1       2.082   1.831   0.635  0.00  0.00    +0.173 C 
BRANCH  18  19
ATOM     19  C   UNL     1       2.466   3.267   0.881  0.00  0.00    +0.228 C 
ATOM     20  O   UNL     1       1.611   4.126   0.918  0.00  0.00    -0.275 OA
ATOM     21  N   UNL     1       3.761   3.598   1.061  0.00  0.00    -0.278 N 
ATOM     22  H   UNL     1       4.537   2.819   1.027  0.00  0.00    +0.155 HD
BRANCH  21  23
ATOM     23  C   UNL     1       4.114   4.920   1.288  0.00  0.00    +0.090 A 
ATOM     24  C   UNL     1       5.377   5.450   1.499  0.00  0.00    +0.084 A 
ATOM     25  C   UNL     1       5.483   6.887   1.709  0.00  0.00    -0.018 A 
ATOM     26  C   UNL     1       4.308   7.553   1.690  0.00  0.00    -0.004 A 
ATOM     27  S   UNL     1       3.084   6.309   1.384  0.00  0.00    -0.077 S 
ATOM     28  C   UNL     1       4.083   9.018   1.898  0.00  0.00    +0.043 C 
ATOM     29  C   UNL     1       5.059   9.810   1.016  0.00  0.00    +0.005 C 
ATOM     30  C   UNL     1       6.342  10.044   1.808  0.00  0.00    +0.001 C 
ATOM     31  C   UNL     1       6.609   8.863   2.739  0.00  0.00    +0.005 C 
ATOM     32  C   UNL     1       6.818   7.586   1.932  0.00  0.00    +0.037 C 
BRANCH  24  33
ATOM     33  C   UNL     1       6.539   4.613   1.506  0.00  0.00    +0.102 C 
ATOM     34  N   UNL     1       7.460   3.949   1.512  0.00  0.00    -0.191 NA
ENDBRANCH  24  33
ENDBRANCH  21  23
ENDBRANCH  18  19
ENDBRANCH   1  18
TORSDOF 8
