REMARK  Name = ZINC36266710
REMARK  8 active torsions:
REMARK  status: ('A' for Active; 'I' for Inactive)
REMARK    1  A    between atoms: C_1  and  C_2
REMARK    2  A    between atoms: C_2  and  C_3
REMARK    3  A    between atoms: C_3  and  C_4
REMARK    4  A    between atoms: C_7  and  S_10
REMARK    5  A    between atoms: S_10  and  N_13
REMARK    6  A    between atoms: N_13  and  C_14
REMARK    7  A    between atoms: C_14  and  C_15
REMARK    8  A    between atoms: C_15  and  N_21
REMARK                            x       y       z     vdW  Elec       q    Type
REMARK                         _______ _______ _______ _____ _____    ______ ____
ROOT
ATOM      1  N   UNL     1       0.033  -7.038  -0.159  0.00  0.00    -0.191 NA
ATOM      2  H   UNL     1      -0.799  -7.532  -0.086  0.00  0.00    +0.148 HD
ENDROOT
BRANCH   1   3
ATOM      3  S   UNL     1       0.824  -6.544   1.209  0.00  0.00    +0.058 S 
ATOM      4  O   UNL     1       2.183  -6.931   1.054  0.00  0.00    -0.153 OA
ATOM      5  O   UNL     1       0.033  -6.966   2.311  0.00  0.00    -0.153 OA
BRANCH   3   9
ATOM      6  C   UNL     1       0.762  -2.018   1.233  0.00  0.00    -0.047 A 
ATOM      7  C   UNL     1      -0.262  -2.726   1.833  0.00  0.00    +0.005 A 
ATOM      8  C   UNL     1      -0.243  -4.108   1.825  0.00  0.00    +0.029 A 
ATOM      9  C   UNL     1       0.800  -4.782   1.218  0.00  0.00    +0.105 A 
ATOM     10  C   UNL     1       1.824  -4.074   0.617  0.00  0.00    +0.029 A 
ATOM     11  C   UNL     1       1.803  -2.692   0.621  0.00  0.00    +0.005 A 
BRANCH   6  12
ATOM     12  C   UNL     1       0.742  -0.511   1.242  0.00  0.00    +0.035 C 
BRANCH  12  14
ATOM     13  C   UNL     1      -0.019   1.526   0.010  0.00  0.00    +0.004 C 
ATOM     14  C   UNL     1       0.002  -0.004   0.002  0.00  0.00    +0.001 C 
ENDBRANCH  12  14
ENDBRANCH   6  12
ENDBRANCH   3   9
ENDBRANCH   1   3
BRANCH   1  15
ATOM     15  C   UNL     1       0.588  -6.728  -1.479  0.00  0.00    +0.093 C 
BRANCH  15  16
ATOM     16  C   UNL     1      -0.102  -7.591  -2.538  0.00  0.00    -0.057 C 
ATOM     17  C   UNL     1       0.131  -9.069  -2.221  0.00  0.00    -0.012 C 
ATOM     18  C   UNL     1       1.632  -9.362  -2.224  0.00  0.00    -0.001 C 
ATOM     19  C   UNL     1       2.212  -9.038  -3.602  0.00  0.00    -0.000 C 
ATOM     20  C   UNL     1       1.980  -7.559  -3.919  0.00  0.00    -0.001 C 
ATOM     21  C   UNL     1       0.478  -7.267  -3.916  0.00  0.00    -0.012 C 
BRANCH  16  22
ATOM     22  N   UNL     1      -1.544  -7.310  -2.535  0.00  0.00    +0.383 N 
ATOM     23  H   UNL     1      -1.697  -6.335  -2.744  0.00  0.00    -0.089 HD
ATOM     24  H   UNL     1      -1.998  -7.879  -3.233  0.00  0.00    -0.089 HD
ATOM     25  H   UNL     1      -1.926  -7.524  -1.626  0.00  0.00    -0.089 HD
ENDBRANCH  16  22
ENDBRANCH  15  16
ENDBRANCH   1  15
TORSDOF 7
