REMARK  Name = ZINC16434804
REMARK  6 active torsions:
REMARK  status: ('A' for Active; 'I' for Inactive)
REMARK    1  A    between atoms: C_1  and  C_2
REMARK    2  A    between atoms: C_2  and  C_4
REMARK    3  A    between atoms: C_2  and  N_9
REMARK    4  A    between atoms: N_9  and  C_10
REMARK    5  A    between atoms: N_9  and  C_11
REMARK    6  A    between atoms: C_11  and  C_12
REMARK                            x       y       z     vdW  Elec       q    Type
REMARK                         _______ _______ _______ _____ _____    ______ ____
ROOT
ATOM      1  C   UNL     1       0.007  -0.316  -3.373  0.00  0.00    -0.016 A 
ATOM      2  C   UNL     1       1.112   0.123  -4.079  0.00  0.00    +0.055 A 
ATOM      3  C   UNL     1       1.478  -0.507  -5.258  0.00  0.00    +0.162 A 
ATOM      4  C   UNL     1       0.733  -1.583  -5.728  0.00  0.00    +0.163 A 
ATOM      5  C   UNL     1      -0.375  -2.018  -5.016  0.00  0.00    +0.065 A 
ATOM      6  C   UNL     1      -0.733  -1.387  -3.838  0.00  0.00    +0.026 A 
ATOM      7 BR   UNL     1      -2.240  -1.988  -2.866  0.00  0.00    -0.050 Br
ATOM      8  O   UNL     1       1.081  -2.221  -6.879  0.00  0.00    -0.485 OA
ATOM      9  C   UNL     1       1.972  -1.525  -7.756  0.00  0.00    +0.270 C 
ATOM     10  C   UNL     1       3.122  -0.952  -6.917  0.00  0.00    +0.270 C 
ATOM     11  O   UNL     1       2.566  -0.061  -5.944  0.00  0.00    -0.485 OA
ENDROOT
BRANCH   1  12
ATOM     12  C   UNL     1      -0.388   0.371  -2.091  0.00  0.00    +0.121 C 
BRANCH  12  13
ATOM     13  N   UNL     1      -0.054  -0.493  -0.950  0.00  0.00    -0.294 NA
ATOM     14  C   UNL     1       1.399  -0.558  -0.746  0.00  0.00    +0.105 C 
BRANCH  13  16
ATOM     15  C   UNL     1      -0.015   1.184   0.834  0.00  0.00    +0.030 C 
ATOM     16  C   UNL     1      -0.737  -0.041   0.270  0.00  0.00    +0.090 C 
BRANCH  16  17
ATOM     17  C   UNL     1      -0.724  -1.147   1.292  0.00  0.00    +0.007 A 
ATOM     18  C   UNL     1      -1.748  -1.639   2.031  0.00  0.00    +0.013 A 
ATOM     19  C   UNL     1      -1.501  -2.670   2.918  0.00  0.00    +0.008 A 
ATOM     20  C   UNL     1      -0.241  -3.159   3.022  0.00  0.00    +0.045 A 
ATOM     21  S   UNL     1       0.643  -2.157   1.839  0.00  0.00    -0.100 S 
ENDBRANCH  16  17
ENDBRANCH  13  16
ENDBRANCH  12  13
ENDBRANCH   1  12
TORSDOF 4
