REMARK  Name = ZINC59039460
REMARK  12 active torsions:
REMARK  status: ('A' for Active; 'I' for Inactive)
REMARK    1  A    between atoms: C_1  and  C_2
REMARK    2  A    between atoms: C_2  and  C_3
REMARK    3  A    between atoms: C_3  and  S_4
REMARK    4  A    between atoms: S_4  and  C_5
REMARK    5  A    between atoms: C_11  and  C_13
REMARK    6  A    between atoms: C_13  and  S_14
REMARK    7  A    between atoms: S_14  and  C_15
REMARK    8  A    between atoms: N_20  and  N_21
REMARK    9  A    between atoms: C_22  and  C_23
REMARK   10  A    between atoms: C_22  and  C_24
REMARK   11  A    between atoms: C_27  and  O_30
REMARK   12  A    between atoms: O_30  and  C_31
REMARK                            x       y       z     vdW  Elec       q    Type
REMARK                         _______ _______ _______ _____ _____    ______ ____
ROOT
ATOM      1  C   UNL     1     -12.871  -4.088   2.961  0.00  0.00    +0.211 A 
ATOM      2  N   UNL     1     -13.939  -3.784   2.215  0.00  0.00    -0.186 NA
ATOM      3  C   UNL     1     -14.594  -4.885   1.910  0.00  0.00    +0.232 A 
ATOM      4  N   UNL     1     -13.941  -5.927   2.468  0.00  0.00    -0.245 N 
ATOM      5  N   UNL     1     -12.830  -5.388   3.136  0.00  0.00    -0.144 NA
ATOM      6  N   UNL     1     -15.748  -4.961   1.152  0.00  0.00    -0.205 N 
ATOM      7  H   UNL     1     -16.160  -5.822   0.981  0.00  0.00    +0.177 HD
ATOM      8  H   UNL     1     -14.189  -6.863   2.415  0.00  0.00    +0.192 HD
ENDROOT
BRANCH   6   9
ATOM      9  N   UNL     1     -16.322  -3.793   0.632  0.00  0.00    -0.184 NA
ATOM     10  C   UNL     1     -17.465  -3.850   0.019  0.00  0.00    +0.063 C 
ATOM     11  C   UNL     1     -17.994  -2.637  -0.702  0.00  0.00    +0.068 C 
BRANCH  10  12
ATOM     12  C   UNL     1     -18.246  -5.100   0.029  0.00  0.00    -0.002 A 
ATOM     13  C   UNL     1     -18.265  -5.906   1.171  0.00  0.00    +0.013 A 
ATOM     14  C   UNL     1     -18.996  -7.074   1.176  0.00  0.00    +0.046 A 
ATOM     15  C   UNL     1     -19.714  -7.451   0.048  0.00  0.00    +0.120 A 
ATOM     16  C   UNL     1     -19.698  -6.654  -1.089  0.00  0.00    +0.046 A 
ATOM     17  C   UNL     1     -18.975  -5.481  -1.101  0.00  0.00    +0.013 A 
BRANCH  15  18
ATOM     18  O   UNL     1     -20.433  -8.603   0.058  0.00  0.00    -0.495 OA
ATOM     19  C   UNL     1     -21.148  -8.931  -1.135  0.00  0.00    +0.277 C 
ENDBRANCH  15  18
ENDBRANCH  10  12
ENDBRANCH   6   9
BRANCH   1  20
ATOM     20  S   UNL     1     -11.705  -2.931   3.599  0.00  0.00    -0.075 S 
BRANCH  20  21
ATOM     21  C   UNL     1     -10.516  -3.960   4.502  0.00  0.00    +0.173 C 
BRANCH  21  28
ATOM     22  C   UNL     1      -5.436  -1.588   7.587  0.00  0.00    +0.160 A 
ATOM     23  N   UNL     1      -6.356  -0.923   6.903  0.00  0.00    -0.133 NA
ATOM     24  N   UNL     1      -7.318  -1.509   6.335  0.00  0.00    -0.125 NA
ATOM     25  C   UNL     1      -7.467  -2.822   6.386  0.00  0.00    +0.189 A 
ATOM     26  S   UNL     1      -6.038  -3.261   7.370  0.00  0.00    -0.024 S 
ATOM     27  N   UNL     1      -8.453  -3.633   5.827  0.00  0.00    -0.263 N 
ATOM     28  C   UNL     1      -9.449  -3.083   5.106  0.00  0.00    +0.229 C 
ATOM     29  O   UNL     1      -9.488  -1.882   4.943  0.00  0.00    -0.275 OA
ATOM     30  H   UNL     1      -8.421  -4.594   5.958  0.00  0.00    +0.157 HD
BRANCH  22  31
ATOM     31  S   UNL     1      -4.021  -0.997   8.454  0.00  0.00    -0.097 S 
BRANCH  31  32
ATOM     32  C   UNL     1      -4.083   0.801   8.221  0.00  0.00    +0.076 C 
BRANCH  32  34
ATOM     33  C   UNL     1      -2.947   2.966   8.736  0.00  0.00    +0.004 C 
ATOM     34  C   UNL     1      -2.895   1.450   8.933  0.00  0.00    +0.008 C 
ENDBRANCH  32  34
ENDBRANCH  31  32
ENDBRANCH  22  31
ENDBRANCH  21  28
ENDBRANCH  20  21
ENDBRANCH   1  20
TORSDOF 9
