REMARK  Name = ZINC27247227
REMARK  9 active torsions:
REMARK  status: ('A' for Active; 'I' for Inactive)
REMARK    1  A    between atoms: C_1  and  C_2
REMARK    2  A    between atoms: C_2  and  C_3
REMARK    3  A    between atoms: C_6  and  C_9
REMARK    4  A    between atoms: C_9  and  C_10
REMARK    5  A    between atoms: C_9  and  C_16
REMARK    6  A    between atoms: C_9  and  O_32
REMARK    7  A    between atoms: C_16  and  C_18
REMARK    8  A    between atoms: C_16  and  C_25
REMARK    9  A    between atoms: C_18  and  N_19
REMARK                            x       y       z     vdW  Elec       q    Type
REMARK                         _______ _______ _______ _____ _____    ______ ____
ROOT
ATOM      1  C   UNL     1      -0.030   1.446   0.128  0.00  0.00    +0.102 C 
ENDROOT
BRANCH   1   5
ATOM      2  C   UNL     1      -0.692   3.053   4.030  0.00  0.00    -0.048 A 
ATOM      3  C   UNL     1       0.149   3.705   3.147  0.00  0.00    +0.004 A 
ATOM      4  C   UNL     1       0.363   3.185   1.885  0.00  0.00    +0.007 A 
ATOM      5  C   UNL     1      -0.264   2.013   1.505  0.00  0.00    -0.015 A 
ATOM      6  C   UNL     1      -1.109   1.364   2.385  0.00  0.00    +0.007 A 
ATOM      7  C   UNL     1      -1.319   1.881   3.650  0.00  0.00    +0.004 A 
BRANCH   2   9
ATOM      8  C   UNL     1      -2.120   4.573   5.371  0.00  0.00    +0.009 C 
ATOM      9  C   UNL     1      -0.924   3.619   5.407  0.00  0.00    +0.032 C 
ENDBRANCH   2   9
ENDBRANCH   1   5
BRANCH   1  10
ATOM     10  C   UNL     1       0.400  -0.018   0.245  0.00  0.00    +0.026 C 
ATOM     11  C   UNL     1       1.559  -0.131   1.238  0.00  0.00    +0.007 C 
ATOM     12  C   UNL     1       1.989  -1.594   1.355  0.00  0.00    +0.000 C 
ATOM     13  C   UNL     1       2.439  -2.105  -0.015  0.00  0.00    +0.000 C 
ATOM     14  C   UNL     1       1.280  -1.992  -1.008  0.00  0.00    +0.000 C 
ATOM     15  C   UNL     1       0.850  -0.528  -1.125  0.00  0.00    +0.007 C 
ENDBRANCH   1  10
BRANCH   1  16
ATOM     16  O   UNL     1       0.997   2.193  -0.527  0.00  0.00    -0.383 OA
ATOM     17  H   UNL     1       1.306   1.925  -1.548  0.00  0.00    +0.211 HD
ENDBRANCH   1  16
BRANCH   1  18
ATOM     18  C   UNL     1      -1.323   1.534  -0.686  0.00  0.00    +0.069 C 
BRANCH  18  19
ATOM     19  C   UNL     1      -1.047   1.133  -2.112  0.00  0.00    -0.040 A 
ATOM     20  C   UNL     1      -0.074   1.794  -2.839  0.00  0.00    +0.005 A 
ATOM     21  C   UNL     1       0.183   1.423  -4.146  0.00  0.00    +0.020 A 
ATOM     22  C   UNL     1      -0.540   0.399  -4.729  0.00  0.00    +0.041 A 
ATOM     23  C   UNL     1      -1.518  -0.258  -4.003  0.00  0.00    +0.020 A 
ATOM     24  C   UNL     1      -1.770   0.110  -2.695  0.00  0.00    +0.005 A 
ATOM     25 CL   UNL     1      -0.223  -0.062  -6.373  0.00  0.00    -0.084 Cl
ENDBRANCH  18  19
BRANCH  18  26
ATOM     26  C   UNL     1      -1.850   2.970  -0.652  0.00  0.00    +0.096 C 
BRANCH  26  27
ATOM     27  N   UNL     1      -3.147   3.031  -1.338  0.00  0.00    -0.297 NA
ATOM     28  C   UNL     1      -3.469   4.410  -1.735  0.00  0.00    +0.112 C 
ATOM     29  C   UNL     1      -4.796   4.420  -2.497  0.00  0.00    +0.175 C 
ATOM     30  O   UNL     1      -5.815   3.841  -1.677  0.00  0.00    -0.377 OA
ATOM     31  C   UNL     1      -5.535   2.498  -1.273  0.00  0.00    +0.175 C 
ATOM     32  C   UNL     1      -4.215   2.469  -0.498  0.00  0.00    +0.112 C 
ENDBRANCH  26  27
ENDBRANCH  18  26
ENDBRANCH   1  18
TORSDOF 8
