REMARK  Name = ZINC22165530
REMARK  9 active torsions:
REMARK  status: ('A' for Active; 'I' for Inactive)
REMARK    1  A    between atoms: C_1  and  N_2
REMARK    2  A    between atoms: C_3  and  C_24
REMARK    3  A    between atoms: C_6  and  S_7
REMARK    4  A    between atoms: S_7  and  C_8
REMARK    5  A    between atoms: C_8  and  C_9
REMARK    6  A    between atoms: N_11  and  N_12
REMARK    7  A    between atoms: C_13  and  C_15
REMARK    8  A    between atoms: C_15  and  O_16
REMARK    9  A    between atoms: O_16  and  C_17
REMARK                            x       y       z     vdW  Elec       q    Type
REMARK                         _______ _______ _______ _____ _____    ______ ____
ROOT
ATOM      1  C   UNL     1       4.839   1.168  -0.038  0.00  0.00    +0.174 C 
ENDROOT
BRANCH   1   2
ATOM      2  C   UNL     1       3.524   1.904  -0.021  0.00  0.00    +0.239 C 
ATOM      3  O   UNL     1       3.508   3.117  -0.015  0.00  0.00    -0.273 OA
ATOM      4  N   UNL     1       2.366   1.214  -0.014  0.00  0.00    -0.234 N 
ATOM      5  H   UNL     1       2.381   0.115  -0.020  0.00  0.00    +0.173 HD
BRANCH   4   6
ATOM      6  N   UNL     1       1.143   1.898   0.001  0.00  0.00    -0.232 N 
ATOM      7  C   UNL     1      -0.014   1.209   0.009  0.00  0.00    +0.267 C 
ATOM      8  O   UNL     1       0.002  -0.004   0.002  0.00  0.00    -0.271 OA
ATOM      9  H   UNL     1       1.129   2.998   0.007  0.00  0.00    +0.173 HD
BRANCH   7  10
ATOM     10  C   UNL     1      -1.330   1.944   0.019  0.00  0.00    +0.326 C 
BRANCH  10  11
ATOM     11  O   UNL     1      -2.403   1.001   0.019  0.00  0.00    -0.483 OA
BRANCH  11  12
ATOM     12  C   UNL     1      -3.666   1.503   0.028  0.00  0.00    +0.121 A 
ATOM     13  C   UNL     1      -3.867   2.876   0.042  0.00  0.00    +0.047 A 
ATOM     14  C   UNL     1      -5.152   3.385   0.046  0.00  0.00    +0.023 A 
ATOM     15  C   UNL     1      -6.237   2.526   0.046  0.00  0.00    +0.041 A 
ATOM     16  C   UNL     1      -6.038   1.157   0.037  0.00  0.00    +0.023 A 
ATOM     17  C   UNL     1      -4.755   0.644   0.028  0.00  0.00    +0.047 A 
ATOM     18 CL   UNL     1      -7.850   3.168   0.058  0.00  0.00    -0.084 Cl
ENDBRANCH  11  12
ENDBRANCH  10  11
ENDBRANCH   7  10
ENDBRANCH   4   6
ENDBRANCH   1   2
BRANCH   1  19
ATOM     19  S   UNL     1       6.199   2.363  -0.044  0.00  0.00    -0.077 S 
BRANCH  19  25
ATOM     20  C   UNL     1       9.450   2.966  -0.073  0.00  0.00    +0.153 C 
ATOM     21  N   UNL     1       8.894   1.611  -0.074  0.00  0.00    -0.306 N 
ATOM     22  C   UNL     1       9.589   0.433  -0.086  0.00  0.00    +0.178 A 
ATOM     23  N   UNL     1       8.714  -0.533  -0.083  0.00  0.00    -0.130 NA
ATOM     24  N   UNL     1       7.523  -0.050  -0.064  0.00  0.00    -0.122 NA
ATOM     25  C   UNL     1       7.574   1.262  -0.064  0.00  0.00    +0.192 A 
BRANCH  22  26
ATOM     26  C   UNL     1      11.088   0.281  -0.101  0.00  0.00    +0.278 C 
ATOM     27  C   UNL     1      11.577  -0.164   1.284  0.00  0.00    +0.281 C 
ATOM     28  O   UNL     1      13.000  -0.312   1.231  0.00  0.00    -0.484 OA
ATOM     29  C   UNL     1      13.505  -0.986   0.162  0.00  0.00    +0.162 A 
ATOM     30  C   UNL     1      14.802  -1.476   0.217  0.00  0.00    +0.049 A 
ATOM     31  C   UNL     1      15.330  -2.160  -0.861  0.00  0.00    +0.004 A 
ATOM     32  C   UNL     1      14.569  -2.357  -1.998  0.00  0.00    +0.004 A 
ATOM     33  C   UNL     1      13.276  -1.873  -2.059  0.00  0.00    +0.049 A 
ATOM     34  C   UNL     1      12.739  -1.187  -0.980  0.00  0.00    +0.163 A 
ATOM     35  O   UNL     1      11.462  -0.721  -1.053  0.00  0.00    -0.474 OA
ENDBRANCH  22  26
ENDBRANCH  19  25
ENDBRANCH   1  19
TORSDOF 8
