REMARK  Name = ZINC58584435
REMARK  6 active torsions:
REMARK  status: ('A' for Active; 'I' for Inactive)
REMARK    1  A    between atoms: C_1  and  C_2
REMARK    2  A    between atoms: C_5  and  C_8
REMARK    3  A    between atoms: N_13  and  C_15
REMARK    4  A    between atoms: C_15  and  N_16
REMARK    5  A    between atoms: N_19  and  C_22
REMARK    6  A    between atoms: C_25  and  O_28
REMARK                            x       y       z     vdW  Elec       q    Type
REMARK                         _______ _______ _______ _____ _____    ______ ____
ROOT
ATOM      1  C   UNL     1       0.101  -7.547  -1.526  0.00  0.00    +0.233 C 
ENDROOT
BRANCH   1   7
ATOM      2  C   UNL     1       0.088  -4.267  -0.030  0.00  0.00    +0.160 A 
ATOM      3  N   UNL     1       0.086  -5.074   1.090  0.00  0.00    -0.317 N 
ATOM      4  H   UNL     1       0.082  -4.768   2.011  0.00  0.00    +0.169 HD
ATOM      5  C   UNL     1       0.091  -6.360   0.685  0.00  0.00    +0.177 A 
ATOM      6  S   UNL     1       0.090  -7.739   1.700  0.00  0.00    -0.011 S 
ATOM      7  N   UNL     1       0.095  -6.363  -0.663  0.00  0.00    -0.226 N 
ATOM      8  N   UNL     1       0.088  -5.028  -1.089  0.00  0.00    -0.150 NA
BRANCH   2  13
ATOM      9  C   UNL     1       0.071   1.489  -0.028  0.00  0.00    +0.044 C 
ATOM     10  C   UNL     1       0.076  -0.018  -0.029  0.00  0.00    -0.050 A 
ATOM     11  C   UNL     1       0.076  -0.707  -1.229  0.00  0.00    +0.004 A 
ATOM     12  C   UNL     1       0.081  -2.086  -1.236  0.00  0.00    +0.012 A 
ATOM     13  C   UNL     1       0.084  -2.787  -0.030  0.00  0.00    +0.019 A 
ATOM     14  C   UNL     1       0.083  -2.087   1.177  0.00  0.00    +0.012 A 
ATOM     15  C   UNL     1       0.085  -0.708   1.171  0.00  0.00    +0.004 A 
ENDBRANCH   2  13
ENDBRANCH   1   7
BRANCH   1  16
ATOM     16  N   UNL     1      -1.234  -7.735  -2.109  0.00  0.00    -0.281 NA
ATOM     17  C   UNL     1      -1.433  -6.851  -3.265  0.00  0.00    +0.105 C 
ATOM     18  C   UNL     1      -2.890  -6.944  -3.731  0.00  0.00    +0.120 C 
ATOM     19  N   UNL     1      -3.216  -8.359  -3.966  0.00  0.00    -0.327 N 
ATOM     20  C   UNL     1      -2.917  -9.328  -2.900  0.00  0.00    +0.120 C 
ATOM     21  C   UNL     1      -1.459  -9.142  -2.468  0.00  0.00    +0.105 C 
BRANCH  19  22
ATOM     22  C   UNL     1      -3.796  -8.772  -5.170  0.00  0.00    +0.030 A 
ATOM     23  C   UNL     1      -3.994 -10.124  -5.419  0.00  0.00    +0.027 A 
ATOM     24  C   UNL     1      -4.567 -10.530  -6.608  0.00  0.00    +0.047 A 
ATOM     25  C   UNL     1      -4.945  -9.589  -7.553  0.00  0.00    +0.117 A 
ATOM     26  C   UNL     1      -4.748  -8.239  -7.306  0.00  0.00    +0.047 A 
ATOM     27  C   UNL     1      -4.181  -7.830  -6.115  0.00  0.00    +0.027 A 
BRANCH  25  28
ATOM     28  O   UNL     1      -5.510  -9.990  -8.724  0.00  0.00    -0.507 OA
ATOM     29  H   UNL     1      -6.474 -10.057  -8.693  0.00  0.00    +0.292 HD
ENDBRANCH  25  28
ENDBRANCH  19  22
ENDBRANCH   1  16
TORSDOF 5
