REMARK  Name = ZINC20765882
REMARK  5 active torsions:
REMARK  status: ('A' for Active; 'I' for Inactive)
REMARK    1  A    between atoms: C_1  and  C_2
REMARK    2  A    between atoms: C_5  and  C_8
REMARK    3  A    between atoms: C_18  and  S_20
REMARK    4  A    between atoms: S_20  and  N_23
REMARK    5  A    between atoms: N_23  and  C_24
REMARK                            x       y       z     vdW  Elec       q    Type
REMARK                         _______ _______ _______ _____ _____    ______ ____
ROOT
ATOM      1  C   UNL     1      -2.390   1.385  -0.250  0.00  0.00    +0.251 C 
ATOM      2  O   UNL     1      -2.309   0.192  -0.031  0.00  0.00    -0.270 OA
ATOM      3  N   UNL     1      -1.291   2.082  -0.603  0.00  0.00    -0.267 N 
ATOM      4  C   UNL     1      -1.398   3.489  -1.014  0.00  0.00    +0.114 C 
ATOM      5  C   UNL     1      -0.532   3.678  -2.266  0.00  0.00    +0.024 C 
ATOM      6  C   UNL     1       0.927   3.404  -1.903  0.00  0.00    +0.038 C 
ATOM      7  C   UNL     1       1.057   2.078  -1.203  0.00  0.00    -0.024 A 
ATOM      8  C   UNL     1      -0.028   1.477  -0.583  0.00  0.00    +0.040 A 
ATOM      9  C   UNL     1       0.129   0.257   0.064  0.00  0.00    +0.026 A 
ATOM     10  C   UNL     1       1.364  -0.360   0.087  0.00  0.00    +0.030 A 
ATOM     11  C   UNL     1       2.444   0.237  -0.536  0.00  0.00    +0.106 A 
ATOM     12  C   UNL     1       2.291   1.451  -1.178  0.00  0.00    +0.034 A 
ENDROOT
BRANCH   1  17
ATOM     13  C   UNL     1      -7.463   4.059   0.224  0.00  0.00    +0.044 C 
ATOM     14  C   UNL     1      -6.135   3.359   0.100  0.00  0.00    -0.050 A 
ATOM     15  C   UNL     1      -6.093   2.006  -0.189  0.00  0.00    +0.004 A 
ATOM     16  C   UNL     1      -4.880   1.359  -0.304  0.00  0.00    +0.013 A 
ATOM     17  C   UNL     1      -3.693   2.072  -0.128  0.00  0.00    +0.037 A 
ATOM     18  C   UNL     1      -3.742   3.435   0.168  0.00  0.00    +0.013 A 
ATOM     19  C   UNL     1      -4.962   4.072   0.275  0.00  0.00    +0.004 A 
ENDBRANCH   1  17
BRANCH  11  20
ATOM     20  S   UNL     1       4.020  -0.551  -0.510  0.00  0.00    +0.058 S 
ATOM     21  O   UNL     1       4.989   0.472  -0.693  0.00  0.00    -0.153 OA
ATOM     22  O   UNL     1       4.025  -1.411   0.622  0.00  0.00    -0.153 OA
BRANCH  20  23
ATOM     23  N   UNL     1       4.102  -1.526  -1.846  0.00  0.00    -0.193 NA
ATOM     24  C   UNL     1       4.089  -0.934  -3.186  0.00  0.00    +0.127 C 
ATOM     25  H   UNL     1       3.999  -2.614  -1.724  0.00  0.00    +0.148 HD
ENDBRANCH  20  23
ENDBRANCH  11  20
TORSDOF 3
