REMARK  Name = ZINC08847759
REMARK  6 active torsions:
REMARK  status: ('A' for Active; 'I' for Inactive)
REMARK    1  A    between atoms: C_1  and  C_2
REMARK    2  A    between atoms: C_2  and  C_3
REMARK    3  A    between atoms: C_2  and  C_4
REMARK    4  A    between atoms: C_2  and  C_5
REMARK    5  A    between atoms: C_8  and  C_11
REMARK    6  A    between atoms: N_14  and  N_15
REMARK                            x       y       z     vdW  Elec       q    Type
REMARK                         _______ _______ _______ _____ _____    ______ ____
ROOT
ATOM      1  C   UNL     1       0.799   7.529  -0.226  0.00  0.00    +0.138 A 
ATOM      2  C   UNL     1       0.939   6.208   0.033  0.00  0.00    +0.077 A 
ATOM      3  C   UNL     1      -0.274   5.367   0.034  0.00  0.00    +0.096 A 
ATOM      4  N   UNL     1      -0.210   4.056   0.026  0.00  0.00    -0.181 NA
ATOM      5  C   UNL     1      -1.570   6.092   0.050  0.00  0.00    +0.047 A 
ATOM      6  C   UNL     1      -2.763   5.436   0.320  0.00  0.00    +0.033 A 
ATOM      7  C   UNL     1      -3.947   6.150   0.329  0.00  0.00    +0.043 A 
ATOM      8  C   UNL     1      -3.939   7.511   0.070  0.00  0.00    +0.043 A 
ATOM      9  C   UNL     1      -2.755   8.170  -0.201  0.00  0.00    +0.085 A 
ATOM     10  C   UNL     1      -1.557   7.467  -0.216  0.00  0.00    +0.156 A 
ATOM     11  O   UNL     1      -0.393   8.099  -0.486  0.00  0.00    -0.453 OA
ATOM     12 CL   UNL     1      -2.764   9.876  -0.523  0.00  0.00    -0.080 Cl
ATOM     13 CL   UNL     1      -5.446   5.340   0.665  0.00  0.00    -0.083 Cl
ENDROOT
BRANCH   4  14
ATOM     14  N   UNL     1       1.035   3.415   0.011  0.00  0.00    -0.220 N 
ATOM     15  C   UNL     1       1.102   2.033   0.003  0.00  0.00    +0.139 A 
ATOM     16  C   UNL     1       2.358   1.407  -0.012  0.00  0.00    +0.046 A 
ATOM     17  C   UNL     1       2.439   0.048  -0.021  0.00  0.00    +0.013 A 
ATOM     18  C   UNL     1       1.239  -0.694  -0.013  0.00  0.00    +0.001 A 
ATOM     19  C   UNL     1       1.250  -2.097  -0.021  0.00  0.00    +0.010 A 
ATOM     20  C   UNL     1       0.072  -2.780  -0.015  0.00  0.00    +0.001 A 
ATOM     21  C   UNL     1      -1.146  -2.104   0.001  0.00  0.00    +0.002 A 
ATOM     22  C   UNL     1      -1.193  -0.744   0.009  0.00  0.00    +0.028 A 
ATOM     23  C   UNL     1       0.002  -0.004   0.002  0.00  0.00    +0.073 A 
ATOM     24  N   UNL     1      -0.016   1.333   0.009  0.00  0.00    -0.231 NA
ATOM     25  H   UNL     1       1.851   3.940   0.005  0.00  0.00    +0.176 HD
ENDBRANCH   4  14
BRANCH   1  29
ATOM     26  C   UNL     1       4.263   9.985  -0.201  0.00  0.00    -0.042 A 
ATOM     27  C   UNL     1       3.025  10.543  -0.465  0.00  0.00    +0.005 A 
ATOM     28  C   UNL     1       1.895   9.752  -0.475  0.00  0.00    +0.012 A 
ATOM     29  C   UNL     1       2.003   8.383  -0.217  0.00  0.00    +0.017 A 
ATOM     30  C   UNL     1       3.255   7.827   0.054  0.00  0.00    +0.012 A 
ATOM     31  C   UNL     1       4.377   8.629   0.055  0.00  0.00    +0.005 A 
BRANCH  26  33
ATOM     32  C   UNL     1       5.340  11.942   0.874  0.00  0.00    +0.015 C 
ATOM     33  C   UNL     1       5.492  10.856  -0.192  0.00  0.00    -0.013 C 
ATOM     34  C   UNL     1       6.721  10.001   0.123  0.00  0.00    +0.015 C 
ATOM     35  C   UNL     1       5.664  11.509  -1.565  0.00  0.00    +0.015 C 
ENDBRANCH  26  33
ENDBRANCH   1  29
TORSDOF 3
