REMARK  Name = ZINC66334004
REMARK  7 active torsions:
REMARK  status: ('A' for Active; 'I' for Inactive)
REMARK    1  A    between atoms: C_1  and  C_2
REMARK    2  A    between atoms: C_2  and  C_3
REMARK    3  A    between atoms: C_2  and  C_4
REMARK    4  A    between atoms: C_2  and  C_5
REMARK    5  A    between atoms: C_5  and  N_6
REMARK    6  A    between atoms: C_7  and  C_9
REMARK    7  A    between atoms: C_21  and  C_23
REMARK                            x       y       z     vdW  Elec       q    Type
REMARK                         _______ _______ _______ _____ _____    ______ ____
ROOT
ATOM      1  C   UNL     1       4.102  -0.077  -2.417  0.00  0.00    +0.163 C 
ATOM      2  C   UNL     1       4.910  -1.069  -1.536  0.00  0.00    +0.037 C 
ATOM      3  C   UNL     1       6.292  -1.031  -2.207  0.00  0.00    +0.012 C 
ATOM      4  C   UNL     1       7.137  -2.280  -2.020  0.00  0.00    +0.005 C 
ATOM      5  C   UNL     1       8.409  -2.101  -2.864  0.00  0.00    +0.000 C 
ATOM      6  C   UNL     1       8.076  -1.877  -4.336  0.00  0.00    +0.002 C 
ATOM      7  C   UNL     1       7.110  -0.695  -4.519  0.00  0.00    +0.023 C 
ATOM      8  C   UNL     1       5.871  -0.973  -3.700  0.00  0.00    +0.080 C 
ATOM      9  N   UNL     1       4.789   0.004  -3.728  0.00  0.00    -0.283 N 
ATOM     10  C   UNL     1       4.472   0.826  -4.748  0.00  0.00    +0.247 C 
ATOM     11  O   UNL     1       5.166   0.852  -5.746  0.00  0.00    -0.270 OA
ENDROOT
BRANCH  10  12
ATOM     12  C   UNL     1       3.280   1.695  -4.654  0.00  0.00    +0.037 A 
ATOM     13  C   UNL     1       3.014   2.396  -3.477  0.00  0.00    +0.013 A 
ATOM     14  C   UNL     1       1.901   3.206  -3.396  0.00  0.00    +0.001 A 
ATOM     15  C   UNL     1       1.047   3.324  -4.479  0.00  0.00    +0.000 A 
ATOM     16  C   UNL     1       1.304   2.631  -5.648  0.00  0.00    +0.001 A 
ATOM     17  C   UNL     1       2.418   1.823  -5.745  0.00  0.00    +0.013 A 
ENDBRANCH  10  12
BRANCH   1  19
ATOM     18  N   UNL     1       1.777  -0.401  -1.637  0.00  0.00    -0.313 N 
ATOM     19  C   UNL     1       2.696  -0.586  -2.606  0.00  0.00    +0.234 C 
ATOM     20  O   UNL     1       2.391  -1.162  -3.629  0.00  0.00    -0.274 OA
ATOM     21  H   UNL     1       2.020   0.060  -0.819  0.00  0.00    +0.149 HD
BRANCH  18  22
ATOM     22  C   UNL     1       0.410  -0.895  -1.821  0.00  0.00    +0.110 C 
BRANCH  22  24
ATOM     23  C   UNL     1      -0.453   0.960  -0.386  0.00  0.00    +0.012 C 
ATOM     24  C   UNL     1      -0.425  -0.557  -0.584  0.00  0.00    -0.022 C 
ATOM     25  C   UNL     1       0.197  -1.220   0.647  0.00  0.00    +0.012 C 
ATOM     26  C   UNL     1      -1.852  -1.074  -0.775  0.00  0.00    +0.012 C 
ENDBRANCH  22  24
ENDBRANCH  18  22
ENDBRANCH   1  19
TORSDOF 4
