REMARK  Name = ZINC03877797
REMARK  6 active torsions:
REMARK  status: ('A' for Active; 'I' for Inactive)
REMARK    1  A    between atoms: C_1  and  C_2
REMARK    2  A    between atoms: C_6  and  C_27
REMARK    3  A    between atoms: C_7  and  N_8
REMARK    4  A    between atoms: C_9  and  C_13
REMARK    5  A    between atoms: C_13  and  N_19
REMARK    6  A    between atoms: N_19  and  C_20
REMARK                            x       y       z     vdW  Elec       q    Type
REMARK                         _______ _______ _______ _____ _____    ______ ____
ROOT
ATOM      1  C   UNL     1      -2.901   5.688   0.100  0.00  0.00    +0.094 C 
ATOM      2  C   UNL     1      -3.223   4.818  -1.117  0.00  0.00    +0.034 C 
ATOM      3  C   UNL     1      -4.650   4.279  -0.995  0.00  0.00    +0.003 C 
ATOM      4  C   UNL     1      -5.633   5.449  -0.930  0.00  0.00    +0.000 C 
ATOM      5  C   UNL     1      -5.311   6.319   0.287  0.00  0.00    +0.003 C 
ATOM      6  C   UNL     1      -3.884   6.858   0.165  0.00  0.00    +0.034 C 
ENDROOT
BRANCH   1   8
ATOM      7  N   UNL     1      -0.521   6.125   0.910  0.00  0.00    -0.194 N 
ATOM      8  C   UNL     1      -1.495   6.219  -0.020  0.00  0.00    +0.180 A 
ATOM      9  N   UNL     1      -0.994   6.859  -1.044  0.00  0.00    -0.111 NA
ATOM     10  N   UNL     1       0.234   7.169  -0.827  0.00  0.00    -0.023 NA
ATOM     11  N   UNL     1       0.597   6.757   0.340  0.00  0.00    -0.039 NA
BRANCH   7  18
ATOM     12  C   UNL     1      -2.323   7.231   2.816  0.00  0.00    +0.046 C 
ATOM     13  C   UNL     1      -1.472   6.028   3.131  0.00  0.00    -0.025 A 
ATOM     14  C   UNL     1      -1.554   5.430   4.374  0.00  0.00    +0.005 A 
ATOM     15  C   UNL     1      -0.773   4.326   4.664  0.00  0.00    +0.001 A 
ATOM     16  C   UNL     1       0.095   3.821   3.713  0.00  0.00    +0.005 A 
ATOM     17  C   UNL     1       0.177   4.411   2.467  0.00  0.00    -0.025 A 
ATOM     18  C   UNL     1      -0.606   5.520   2.173  0.00  0.00    +0.075 A 
ATOM     19  C   UNL     1       1.119   3.857   1.430  0.00  0.00    +0.046 C 
ENDBRANCH   7  18
ENDBRANCH   1   8
BRANCH   1  20
ATOM     20  N   UNL     1      -3.016   4.884   1.319  0.00  0.00    -0.332 N 
ATOM     21  H   UNL     1      -3.554   5.203   2.061  0.00  0.00    +0.147 HD
BRANCH  20  22
ATOM     22  C   UNL     1      -2.353   3.658   1.413  0.00  0.00    +0.028 A 
ATOM     23  C   UNL     1      -1.397   3.310   0.468  0.00  0.00    +0.024 A 
ATOM     24  C   UNL     1      -0.739   2.100   0.566  0.00  0.00    +0.017 A 
ATOM     25  C   UNL     1      -1.039   1.230   1.599  0.00  0.00    +0.018 A 
ATOM     26  C   UNL     1      -1.994   1.571   2.539  0.00  0.00    +0.017 A 
ATOM     27  C   UNL     1      -2.652   2.783   2.449  0.00  0.00    +0.024 A 
ATOM     28 BR   UNL     1      -0.141  -0.430   1.726  0.00  0.00    -0.050 Br
ENDBRANCH  20  22
ENDBRANCH   1  20
TORSDOF 4
