REMARK  Name = ZINC15938344
REMARK  3 active torsions:
REMARK  status: ('A' for Active; 'I' for Inactive)
REMARK    1  A    between atoms: C_1  and  C_2
REMARK    2  A    between atoms: N_9  and  N_10
REMARK    3  A    between atoms: C_11  and  C_13
REMARK                            x       y       z     vdW  Elec       q    Type
REMARK                         _______ _______ _______ _____ _____    ______ ____
ROOT
ATOM      1  N   UNL     1       1.679  -0.207   3.325  0.00  0.00    -0.200 N 
ATOM      2  C   UNL     1       1.953   0.623   4.350  0.00  0.00    +0.299 C 
ATOM      3  O   UNL     1       1.689   1.808   4.261  0.00  0.00    -0.265 OA
ATOM      4  H   UNL     1       1.890  -1.151   3.396  0.00  0.00    +0.178 HD
ENDROOT
BRANCH   1  12
ATOM      5  C   UNL     1      -0.125   1.500   0.054  0.00  0.00    +0.014 C 
ATOM      6  C   UNL     1       0.159   0.002  -0.071  0.00  0.00    +0.032 C 
ATOM      7  C   UNL     1       1.010  -0.258  -1.319  0.00  0.00    +0.009 C 
ATOM      8  C   UNL     1       1.409  -1.734  -1.363  0.00  0.00    +0.001 C 
ATOM      9  C   UNL     1       2.293  -2.068  -0.160  0.00  0.00    +0.006 C 
ATOM     10  C   UNL     1       1.491  -1.876   1.131  0.00  0.00    +0.053 C 
ATOM     11  C   UNL     1       0.923  -0.473   1.145  0.00  0.00    +0.040 C 
ATOM     12  N   UNL     1       1.089   0.293   2.157  0.00  0.00    -0.189 NA
ENDBRANCH   1  12
BRANCH   2  13
ATOM     13  C   UNL     1       2.570   0.100   5.572  0.00  0.00    +0.192 A 
ATOM     14  C   UNL     1       2.894   0.827   6.682  0.00  0.00    +0.056 A 
ATOM     15  C   UNL     1       3.458  -0.070   7.602  0.00  0.00    +0.058 A 
ATOM     16  C   UNL     1       3.454  -1.292   7.021  0.00  0.00    +0.171 A 
ATOM     17  O   UNL     1       2.913  -1.185   5.800  0.00  0.00    -0.444 OA
ATOM     18 BR   UNL     1       4.098  -2.887   7.805  0.00  0.00    -0.008 Br
ENDBRANCH   2  13
TORSDOF 2
