REMARK  Name = ZINC39362905
REMARK  7 active torsions:
REMARK  status: ('A' for Active; 'I' for Inactive)
REMARK    1  A    between atoms: C_1  and  C_2
REMARK    2  A    between atoms: C_7  and  C_8
REMARK    3  A    between atoms: C_8  and  S_9
REMARK    4  A    between atoms: S_9  and  C_10
REMARK    5  A    between atoms: C_13  and  C_23
REMARK    6  A    between atoms: N_15  and  C_16
REMARK    7  A    between atoms: C_23  and  C_24
REMARK                            x       y       z     vdW  Elec       q    Type
REMARK                         _______ _______ _______ _____ _____    ______ ____
ROOT
ATOM      1  C   UNL     1      -1.513   1.164   4.585  0.00  0.00    +0.180 C 
ATOM      2  N   UNL     1      -0.379   1.498   5.102  0.00  0.00    -0.162 NA
ATOM      3  N   UNL     1      -0.551   2.218   6.291  0.00  0.00    -0.246 N 
ATOM      4  C   UNL     1      -2.005   2.321   6.502  0.00  0.00    +0.187 C 
ATOM      5  N   UNL     1      -2.582   1.615   5.346  0.00  0.00    -0.258 N 
ATOM      6  H   UNL     1       0.147   2.576   6.862  0.00  0.00    +0.170 HD
ENDROOT
BRANCH   5   7
ATOM      7  C   UNL     1      -3.941   1.433   5.070  0.00  0.00    +0.038 A 
ATOM      8  C   UNL     1      -4.720   0.643   5.905  0.00  0.00    +0.026 A 
ATOM      9  C   UNL     1      -6.062   0.464   5.631  0.00  0.00    +0.040 A 
ATOM     10  C   UNL     1      -6.630   1.072   4.524  0.00  0.00    +0.124 A 
ATOM     11  C   UNL     1      -5.855   1.860   3.690  0.00  0.00    +0.040 A 
ATOM     12  C   UNL     1      -4.514   2.046   3.963  0.00  0.00    +0.026 A 
ATOM     13  F   UNL     1      -7.943   0.895   4.257  0.00  0.00    -0.205 F 
ENDBRANCH   5   7
BRANCH   1  14
ATOM     14  S   UNL     1      -1.683   0.251   3.087  0.00  0.00    -0.084 S 
BRANCH  14  15
ATOM     15  C   UNL     1       0.027  -0.050   2.560  0.00  0.00    +0.112 C 
BRANCH  15  22
ATOM     16  C   UNL     1       0.001   1.336   0.026  0.00  0.00    +0.044 C 
ATOM     17  C   UNL     1       0.013  -0.170   0.060  0.00  0.00    -0.046 A 
ATOM     18  C   UNL     1       0.017  -0.889  -1.121  0.00  0.00    +0.003 A 
ATOM     19  C   UNL     1       0.027  -2.271  -1.089  0.00  0.00    +0.000 A 
ATOM     20  C   UNL     1       0.034  -2.934   0.124  0.00  0.00    +0.000 A 
ATOM     21  C   UNL     1       0.031  -2.216   1.305  0.00  0.00    +0.005 A 
ATOM     22  C   UNL     1       0.025  -0.834   1.273  0.00  0.00    -0.034 A 
ENDBRANCH  15  22
ENDBRANCH  14  15
ENDBRANCH   1  14
BRANCH   4  23
ATOM     23  C   UNL     1      -2.444   3.787   6.507  0.00  0.00    +0.097 C 
BRANCH  23  24
ATOM     24  C   UNL     1      -1.763   4.511   7.640  0.00  0.00    +0.029 A 
ATOM     25  N   UNL     1      -2.299   4.479   8.898  0.00  0.00    -0.311 N 
ATOM     26  C   UNL     1      -1.699   5.122   9.916  0.00  0.00    +0.327 A 
ATOM     27  O   UNL     1      -2.192   5.079  11.026  0.00  0.00    -0.247 OA
ATOM     28  N   UNL     1      -0.559   5.811   9.723  0.00  0.00    -0.275 N 
ATOM     29  C   UNL     1       0.001   5.867   8.497  0.00  0.00    +0.254 A 
ATOM     30  O   UNL     1       1.033   6.491   8.321  0.00  0.00    -0.268 OA
ATOM     31  C   UNL     1      -0.618   5.191   7.418  0.00  0.00    +0.091 A 
ATOM     32  H   UNL     1      -0.139   6.269  10.467  0.00  0.00    +0.173 HD
ATOM     33  H   UNL     1      -3.120   3.987   9.058  0.00  0.00    +0.170 HD
ENDBRANCH  23  24
ENDBRANCH   4  23
TORSDOF 6
