REMARK  Name = ZINC04457855
REMARK  8 active torsions:
REMARK  status: ('A' for Active; 'I' for Inactive)
REMARK    1  A    between atoms: C_1  and  C_2
REMARK    2  A    between atoms: C_9  and  N_24
REMARK    3  A    between atoms: C_10  and  C_22
REMARK    4  A    between atoms: C_11  and  C_13
REMARK    5  A    between atoms: C_14  and  C_18
REMARK    6  A    between atoms: C_18  and  C_19
REMARK    7  A    between atoms: C_18  and  C_20
REMARK    8  A    between atoms: C_18  and  C_21
REMARK                            x       y       z     vdW  Elec       q    Type
REMARK                         _______ _______ _______ _____ _____    ______ ____
ROOT
ATOM      1  C   UNL     1       0.833   1.305   0.420  0.00  0.00    +0.068 C 
ATOM      2  C   UNL     1       1.003  -0.184   0.260  0.00  0.00    +0.065 A 
ATOM      3  C   UNL     1       0.808  -0.904  -0.920  0.00  0.00    +0.022 A 
ATOM      4  C   UNL     1       1.061  -2.216  -0.639  0.00  0.00    +0.102 A 
ATOM      5  N   UNL     1       1.406  -2.311   0.661  0.00  0.00    -0.270 N 
ATOM      6  H   UNL     1       1.645  -3.124   1.134  0.00  0.00    +0.190 HD
ATOM      7  N   UNL     1       1.363  -1.018   1.204  0.00  0.00    -0.178 NA
ATOM      8  S   UNL     1       0.925  -3.508  -1.831  0.00  0.00    -0.054 S 
ATOM      9  C   UNL     1       0.030  -2.725  -3.134  0.00  0.00    +0.079 C 
ATOM     10  C   UNL     1      -0.122  -1.389  -3.193  0.00  0.00    +0.072 C 
ATOM     11  C   UNL     1       0.404  -0.360  -2.258  0.00  0.00    +0.132 C 
ENDROOT
BRANCH  11  12
ATOM     12  C   UNL     1       1.603   0.297  -2.891  0.00  0.00    +0.121 A 
ATOM     13  C   UNL     1       1.650   1.552  -3.372  0.00  0.00    -0.000 A 
ATOM     14  C   UNL     1       2.958   1.752  -3.871  0.00  0.00    +0.045 A 
ATOM     15  C   UNL     1       3.632   0.606  -3.666  0.00  0.00    +0.195 A 
ATOM     16  O   UNL     1       2.808  -0.270  -3.067  0.00  0.00    -0.467 OA
BRANCH  13  17
ATOM     17  C   UNL     1       0.524   2.554  -3.379  0.00  0.00    -0.009 C 
ATOM     18  C   UNL     1       0.991   3.841  -4.062  0.00  0.00    +0.015 C 
ATOM     19  C   UNL     1      -0.669   1.975  -4.141  0.00  0.00    +0.015 C 
ATOM     20  C   UNL     1       0.108   2.863  -1.939  0.00  0.00    +0.015 C 
ENDBRANCH  13  17
ENDBRANCH  11  12
BRANCH   9  21
ATOM     21  N   UNL     1      -0.530  -3.504  -4.119  0.00  0.00    -0.352 N 
ATOM     22  H   UNL     1      -0.430  -4.468  -4.091  0.00  0.00    +0.143 HD
ATOM     23  H   UNL     1      -1.026  -3.089  -4.842  0.00  0.00    +0.143 HD
ENDBRANCH   9  21
BRANCH  10  24
ATOM     24  C   UNL     1      -0.887  -0.896  -4.299  0.00  0.00    +0.098 C 
ATOM     25  N   UNL     1      -1.494  -0.505  -5.176  0.00  0.00    -0.191 NA
ENDBRANCH  10  24
TORSDOF 4
