REMARK  Name = ZINC29250336
REMARK  3 active torsions:
REMARK  status: ('A' for Active; 'I' for Inactive)
REMARK    1  A    between atoms: C_10  and  C_11
REMARK    2  A    between atoms: C_12  and  C_13
REMARK    3  A    between atoms: C_19  and  C_21
REMARK                            x       y       z     vdW  Elec       q    Type
REMARK                         _______ _______ _______ _____ _____    ______ ____
ROOT
ATOM      1  C   UNL     1       3.784  -0.979  -0.037  0.00  0.00    +0.240 C 
ATOM      2  O   UNL     1       4.824  -0.348  -0.043  0.00  0.00    -0.271 OA
ATOM      3  N   UNL     1       3.812  -2.326  -0.043  0.00  0.00    -0.288 N 
ATOM      4  C   UNL     1       2.633  -3.211  -0.037  0.00  0.00    +0.109 C 
ATOM      5  C   UNL     1       3.142  -4.545   0.563  0.00  0.00    +0.021 C 
ATOM      6  C   UNL     1       4.570  -4.632  -0.035  0.00  0.00    +0.032 C 
ATOM      7  C   UNL     1       5.025  -3.157  -0.064  0.00  0.00    +0.144 C 
ENDROOT
BRANCH   7   8
ATOM      8  C   UNL     1       5.811  -2.885  -1.321  0.00  0.00    +0.154 A 
ATOM      9  N   UNL     1       5.327  -2.767  -2.529  0.00  0.00    -0.132 NA
ATOM     10  N   UNL     1       6.282  -2.528  -3.358  0.00  0.00    -0.134 NA
ATOM     11  C   UNL     1       7.416  -2.488  -2.717  0.00  0.00    +0.134 A 
ATOM     12  N   UNL     1       7.150  -2.724  -1.411  0.00  0.00    -0.313 N 
ATOM     13  C   UNL     1       8.126  -2.800  -0.323  0.00  0.00    +0.125 C 
ATOM     14  C   UNL     1       9.338  -1.930  -0.667  0.00  0.00    +0.022 C 
ATOM     15  C   UNL     1      10.364  -2.757  -1.441  0.00  0.00    +0.002 C 
ATOM     16  C   UNL     1       9.767  -3.259  -2.752  0.00  0.00    +0.008 C 
ATOM     17  C   UNL     1       8.780  -2.221  -3.297  0.00  0.00    +0.076 C 
ENDBRANCH   7   8
BRANCH   1  19
ATOM     18  C   UNL     1       2.473   1.076  -0.015  0.00  0.00    +0.013 C 
ATOM     19  C   UNL     1       2.502  -0.275  -0.021  0.00  0.00    +0.068 C 
BRANCH  18  29
ATOM     20  C   UNL     1       0.974   6.010   0.024  0.00  0.00    +0.001 A 
ATOM     21  C   UNL     1       2.214   5.376   0.009  0.00  0.00    +0.001 A 
ATOM     22  C   UNL     1       2.305   4.016   0.002  0.00  0.00    +0.009 A 
ATOM     23  C   UNL     1       1.137   3.244   0.008  0.00  0.00    -0.011 A 
ATOM     24  C   UNL     1      -0.126   3.885   0.023  0.00  0.00    -0.017 A 
ATOM     25  C   UNL     1      -0.182   5.290   0.031  0.00  0.00    +0.008 A 
ATOM     26  C   UNL     1      -1.296   3.107   0.031  0.00  0.00    +0.008 A 
ATOM     27  C   UNL     1      -1.226   1.747   0.017  0.00  0.00    +0.001 A 
ATOM     28  C   UNL     1      -0.013   1.076   0.008  0.00  0.00    +0.008 A 
ATOM     29  C   UNL     1       1.187   1.782   0.000  0.00  0.00    -0.017 A 
ENDBRANCH  18  29
ENDBRANCH   1  19
TORSDOF 3
