REMARK  Name = ZINC21926316
REMARK  6 active torsions:
REMARK  status: ('A' for Active; 'I' for Inactive)
REMARK    1  A    between atoms: C_5  and  C_7
REMARK    2  A    between atoms: C_7  and  C_8
REMARK    3  A    between atoms: C_8  and  N_9
REMARK    4  A    between atoms: C_10  and  C_12
REMARK    5  A    between atoms: C_12  and  N_13
REMARK    6  A    between atoms: C_14  and  C_16
REMARK                            x       y       z     vdW  Elec       q    Type
REMARK                         _______ _______ _______ _____ _____    ______ ____
ROOT
ATOM      1  C   UNL     1      -6.517   0.837   1.080  0.00  0.00    +0.200 C 
ENDROOT
BRANCH   1   3
ATOM      2  N   UNL     1      -8.506   0.978   2.543  0.00  0.00    -0.314 N 
ATOM      3  C   UNL     1      -7.222   1.323   2.320  0.00  0.00    +0.230 C 
ATOM      4  O   UNL     1      -6.635   2.023   3.116  0.00  0.00    -0.274 OA
ATOM      5  H   UNL     1      -9.039   0.343   1.821  0.00  0.00    +0.149 HD
BRANCH   2   6
ATOM      6  C   UNL     1      -9.192   1.451   3.749  0.00  0.00    +0.109 C 
BRANCH   6   7
ATOM      7  C   UNL     1     -10.627   0.921   3.759  0.00  0.00    +0.056 C 
BRANCH   7  12
ATOM      8  C   UNL     1     -12.026   1.054   7.263  0.00  0.00    +0.000 A 
ATOM      9  C   UNL     1     -12.627   2.299   7.276  0.00  0.00    +0.003 A 
ATOM     10  C   UNL     1     -12.581   3.100   6.150  0.00  0.00    +0.038 A 
ATOM     11  C   UNL     1     -11.934   2.654   5.010  0.00  0.00    +0.127 A 
ATOM     12  C   UNL     1     -11.332   1.407   4.999  0.00  0.00    -0.011 A 
ATOM     13  C   UNL     1     -11.384   0.606   6.124  0.00  0.00    +0.006 A 
ATOM     14  F   UNL     1     -11.889   3.436   3.909  0.00  0.00    -0.205 F 
ENDBRANCH   7  12
ENDBRANCH   6   7
ENDBRANCH   2   6
ENDBRANCH   1   3
BRANCH   1  15
ATOM     15  N   UNL     1      -5.143   1.344   1.069  0.00  0.00    -0.306 N 
ATOM     16  C   UNL     1      -4.318   1.035   0.049  0.00  0.00    +0.220 C 
ATOM     17  O   UNL     1      -4.714   0.337  -0.861  0.00  0.00    -0.275 OA
ATOM     18  H   UNL     1      -4.784   1.976   1.894  0.00  0.00    +0.149 HD
BRANCH  16  19
ATOM     19  C   UNL     1      -2.904   1.556   0.038  0.00  0.00    +0.048 C 
ATOM     20  C   UNL     1      -2.188   1.063  -1.221  0.00  0.00    +0.019 C 
ATOM     21  C   UNL     1      -0.753   1.593  -1.232  0.00  0.00    -0.009 C 
ATOM     22  C   UNL     1      -0.013   1.086   0.008  0.00  0.00    +0.007 C 
ATOM     23  C   UNL     1      -0.729   1.579   1.267  0.00  0.00    -0.009 C 
ATOM     24  C   UNL     1      -2.164   1.050   1.278  0.00  0.00    +0.019 C 
ATOM     25  C   UNL     1      -0.750   3.109   1.275  0.00  0.00    +0.007 C 
ATOM     26  C   UNL     1      -1.490   3.616   0.036  0.00  0.00    -0.009 C 
ATOM     27  C   UNL     1      -0.773   3.123  -1.223  0.00  0.00    +0.007 C 
ATOM     28  C   UNL     1      -2.925   3.086   0.047  0.00  0.00    +0.019 C 
ENDBRANCH  16  19
ENDBRANCH   1  15
TORSDOF 6
