REMARK  Name = ZINC05060323
REMARK  3 active torsions:
REMARK  status: ('A' for Active; 'I' for Inactive)
REMARK    1  A    between atoms: C_1  and  C_2
REMARK    2  A    between atoms: N_17  and  C_18
REMARK    3  A    between atoms: C_18  and  C_19
REMARK                            x       y       z     vdW  Elec       q    Type
REMARK                         _______ _______ _______ _____ _____    ______ ____
ROOT
ATOM      1  C   UNL     1      -3.745   2.066   0.053  0.00  0.00    +0.044 C 
ATOM      2  C   UNL     1      -2.425   1.339   0.036  0.00  0.00    -0.050 A 
ATOM      3  C   UNL     1      -2.401  -0.044   0.030  0.00  0.00    +0.005 A 
ATOM      4  C   UNL     1      -1.194  -0.714   0.014  0.00  0.00    +0.025 A 
ATOM      5  C   UNL     1       0.002  -0.004   0.002  0.00  0.00    +0.060 A 
ATOM      6  C   UNL     1      -0.017   1.391   0.010  0.00  0.00    +0.007 A 
ATOM      7  C   UNL     1      -1.248   2.055   0.031  0.00  0.00    +0.013 A 
ATOM      8  C   UNL     1       1.218   2.212   0.002  0.00  0.00    +0.011 A 
ATOM      9  C   UNL     1       1.156   3.560   0.358  0.00  0.00    +0.010 A 
ATOM     10  C   UNL     1       2.303   4.326   0.351  0.00  0.00    +0.001 A 
ATOM     11  C   UNL     1       3.517   3.768  -0.007  0.00  0.00    +0.002 A 
ATOM     12  C   UNL     1       3.588   2.430  -0.361  0.00  0.00    +0.029 A 
ATOM     13  C   UNL     1       2.448   1.661  -0.355  0.00  0.00    +0.116 A 
ATOM     14  S   UNL     1       2.506  -0.047  -0.800  0.00  0.00    +0.076 S 
ATOM     15  O   UNL     1       3.676  -0.592  -0.206  0.00  0.00    -0.150 OA
ATOM     16  O   UNL     1       2.242  -0.124  -2.194  0.00  0.00    -0.150 OA
ATOM     17  N   UNL     1       1.201  -0.726  -0.019  0.00  0.00    -0.194 N 
ENDROOT
BRANCH  17  18
ATOM     18  C   UNL     1       1.305  -2.037   0.626  0.00  0.00    +0.227 C 
BRANCH  18  19
ATOM     19  C   UNL     1       0.825  -3.104  -0.325  0.00  0.00    +0.235 C 
ATOM     20  O   UNL     1       0.435  -2.798  -1.432  0.00  0.00    -0.274 OA
ATOM     21  N   UNL     1       0.830  -4.397   0.055  0.00  0.00    -0.300 N 
ATOM     22  C   UNL     1       1.305  -4.783   1.391  0.00  0.00    +0.108 C 
ATOM     23  C   UNL     1       0.213  -5.620   2.075  0.00  0.00    +0.019 C 
ATOM     24  C   UNL     1      -0.156  -6.800   1.174  0.00  0.00    +0.003 C 
ATOM     25  C   UNL     1      -0.711  -6.278  -0.153  0.00  0.00    +0.019 C 
ATOM     26  C   UNL     1       0.365  -5.448  -0.860  0.00  0.00    +0.108 C 
ENDBRANCH  18  19
ENDBRANCH  17  18
TORSDOF 2
