REMARK  Name = ZINC20806389
REMARK  8 active torsions:
REMARK  status: ('A' for Active; 'I' for Inactive)
REMARK    1  A    between atoms: C_1  and  C_2
REMARK    2  A    between atoms: N_5  and  C_8
REMARK    3  A    between atoms: C_8  and  C_9
REMARK    4  A    between atoms: C_9  and  C_11
REMARK    5  A    between atoms: C_9  and  O_25
REMARK    6  A    between atoms: C_11  and  O_12
REMARK    7  A    between atoms: O_12  and  C_13
REMARK    8  A    between atoms: C_16  and  C_19
REMARK                            x       y       z     vdW  Elec       q    Type
REMARK                         _______ _______ _______ _____ _____    ______ ____
ROOT
ATOM      1  C   UNL     1       2.753   5.555   0.215  0.00  0.00    +0.258 C 
ENDROOT
BRANCH   1   2
ATOM      2  C   UNL     1       2.767   4.025   0.232  0.00  0.00    +0.135 C 
BRANCH   2   3
ATOM      3  O   UNL     1       3.124   3.566   1.537  0.00  0.00    -0.390 OA
ATOM      4  H   UNL     1       4.096   3.846   1.971  0.00  0.00    +0.210 HD
ENDBRANCH   2   3
BRANCH   2   5
ATOM      5  C   UNL     1       1.378   3.499  -0.132  0.00  0.00    -0.044 C 
BRANCH   5  10
ATOM      6  C   UNL     1       1.059  -2.147  -0.968  0.00  0.00    +0.007 C 
ATOM      7  C   UNL     1       0.965  -0.631  -1.159  0.00  0.00    -0.018 C 
ATOM      8  C   UNL     1       2.364  -0.016  -1.057  0.00  0.00    -0.016 C 
ATOM      9  C   UNL     1       2.256   1.505  -1.188  0.00  0.00    -0.078 C 
ATOM     10  N   UNL     1       1.393   2.030  -0.122  0.00  0.00    +0.381 N 
ATOM     11  C   UNL     1       0.032   1.489  -0.228  0.00  0.00    -0.078 C 
ATOM     12  C   UNL     1       0.072  -0.033  -0.068  0.00  0.00    -0.016 C 
ATOM     13  H   UNL     1       1.811   1.701   0.841  0.00  0.00    -0.082 HD
ENDBRANCH   5  10
ENDBRANCH   2   5
ENDBRANCH   1   2
BRANCH   1  14
ATOM     14  O   UNL     1       4.076   6.046   0.440  0.00  0.00    -0.489 OA
BRANCH  14  15
ATOM     15  C   UNL     1       4.239   7.395   0.456  0.00  0.00    +0.121 A 
ATOM     16  C   UNL     1       3.149   8.229   0.254  0.00  0.00    +0.046 A 
ATOM     17  C   UNL     1       3.317   9.600   0.277  0.00  0.00    +0.007 A 
ATOM     18  C   UNL     1       4.571  10.142   0.488  0.00  0.00    -0.044 A 
ATOM     19  C   UNL     1       5.660   9.312   0.684  0.00  0.00    +0.007 A 
ATOM     20  C   UNL     1       5.497   7.941   0.668  0.00  0.00    +0.046 A 
BRANCH  18  21
ATOM     21  C   UNL     1       4.752  11.638   0.506  0.00  0.00    +0.019 C 
ATOM     22  C   UNL     1       3.895  12.242   1.620  0.00  0.00    +0.008 C 
ATOM     23  C   UNL     1       4.078  13.761   1.638  0.00  0.00    +0.001 C 
ATOM     24  C   UNL     1       3.647  14.342   0.290  0.00  0.00    +0.000 C 
ATOM     25  C   UNL     1       4.504  13.738  -0.824  0.00  0.00    +0.001 C 
ATOM     26  C   UNL     1       4.321  12.219  -0.842  0.00  0.00    +0.008 C 
ENDBRANCH  18  21
ENDBRANCH  14  15
ENDBRANCH   1  14
TORSDOF 7
