REMARK  Name = ZINC20738479
REMARK  5 active torsions:
REMARK  status: ('A' for Active; 'I' for Inactive)
REMARK    1  A    between atoms: C_1  and  O_2
REMARK    2  A    between atoms: O_2  and  C_3
REMARK    3  A    between atoms: C_3  and  C_4
REMARK    4  A    between atoms: C_4  and  N_5
REMARK    5  A    between atoms: C_14  and  C_22
REMARK                            x       y       z     vdW  Elec       q    Type
REMARK                         _______ _______ _______ _____ _____    ______ ____
ROOT
ATOM      1  N   UNL     1      -0.412  -2.554   1.185  0.00  0.00    -0.288 N 
ATOM      2  C   UNL     1       0.941  -2.537   1.127  0.00  0.00    +0.247 C 
ATOM      3  O   UNL     1       1.510  -1.904   0.264  0.00  0.00    -0.270 OA
ATOM      4  C   UNL     1       1.707  -3.339   2.105  0.00  0.00    +0.041 A 
ATOM      5  C   UNL     1       3.093  -3.227   2.192  0.00  0.00    +0.013 A 
ATOM      6  C   UNL     1       3.782  -3.983   3.119  0.00  0.00    +0.001 A 
ATOM      7  C   UNL     1       3.099  -4.846   3.959  0.00  0.00    +0.000 A 
ATOM      8  C   UNL     1       1.722  -4.962   3.874  0.00  0.00    +0.005 A 
ATOM      9  C   UNL     1       1.024  -4.217   2.948  0.00  0.00    -0.021 A 
ATOM     10  C   UNL     1      -0.472  -4.349   2.825  0.00  0.00    +0.129 C 
ATOM     11  C   UNL     1      -1.069  -2.988   2.415  0.00  0.00    +0.053 C 
ATOM     12  C   UNL     1      -0.720  -2.008   3.543  0.00  0.00    +0.027 C 
ATOM     13  C   UNL     1      -1.411  -0.666   3.312  0.00  0.00    +0.002 C 
ATOM     14  C   UNL     1      -2.924  -0.890   3.377  0.00  0.00    +0.000 C 
ATOM     15  C   UNL     1      -3.339  -1.820   2.240  0.00  0.00    +0.002 C 
ATOM     16  C   UNL     1      -2.573  -3.134   2.272  0.00  0.00    +0.027 C 
ENDROOT
BRANCH  10  17
ATOM     17  C   UNL     1      -0.798  -5.388   1.787  0.00  0.00    +0.228 C 
ATOM     18  O   UNL     1      -1.446  -5.084   0.808  0.00  0.00    -0.275 OA
ATOM     19  N   UNL     1      -0.371  -6.656   1.946  0.00  0.00    -0.264 N 
ATOM     20  C   UNL     1      -0.672  -7.613   0.990  0.00  0.00    +0.165 A 
ATOM     21  N   UNL     1      -1.348  -7.477  -0.127  0.00  0.00    -0.225 NA
ATOM     22  C   UNL     1      -1.567  -8.507  -0.973  0.00  0.00    +0.080 A 
ATOM     23  C   UNL     1      -2.274  -8.495  -2.197  0.00  0.00    +0.029 A 
ATOM     24  C   UNL     1      -2.405  -9.639  -2.941  0.00  0.00    +0.002 A 
ATOM     25  C   UNL     1      -1.853 -10.842  -2.524  0.00  0.00    +0.001 A 
ATOM     26  C   UNL     1      -1.155 -10.890  -1.331  0.00  0.00    +0.017 A 
ATOM     27  C   UNL     1      -1.019  -9.749  -0.580  0.00  0.00    +0.041 A 
ATOM     28  S   UNL     1      -0.231  -9.345   0.960  0.00  0.00    -0.052 S 
ATOM     29  H   UNL     1       0.147  -6.899   2.729  0.00  0.00    +0.157 HD
ENDBRANCH  10  17
BRANCH   1  30
ATOM     30  C   UNL     1      -1.154  -2.126   0.002  0.00  0.00    +0.136 C 
BRANCH  30  31
ATOM     31  C   UNL     1      -1.299  -0.603   0.013  0.00  0.00    +0.178 C 
BRANCH  31  33
ATOM     32  C   UNL     1      -0.027   1.428  -0.022  0.00  0.00    +0.194 C 
ATOM     33  O   UNL     1      -0.004  -0.001  -0.029  0.00  0.00    -0.381 OA
ENDBRANCH  31  33
ENDBRANCH  30  31
ENDBRANCH   1  30
TORSDOF 4
