REMARK  Name = ZINC04026656
REMARK  11 active torsions:
REMARK  status: ('A' for Active; 'I' for Inactive)
REMARK    1  A    between atoms: C_1  and  C_2
REMARK    2  A    between atoms: C_15  and  O_34
REMARK    3  A    between atoms: C_18  and  C_33
REMARK    4  A    between atoms: C_23  and  C_24
REMARK    5  A    between atoms: C_23  and  O_32
REMARK    6  A    between atoms: C_24  and  C_26
REMARK    7  A    between atoms: C_26  and  S_27
REMARK    8  A    between atoms: S_27  and  C_28
REMARK    9  A    between atoms: C_28  and  C_29
REMARK   10  A    between atoms: C_28  and  C_30
REMARK   11  A    between atoms: C_28  and  C_31
REMARK                            x       y       z     vdW  Elec       q    Type
REMARK                         _______ _______ _______ _____ _____    ______ ____
ROOT
ATOM      1  C   UNL     1      -2.004   0.204   3.666  0.00  0.00    +0.016 C 
ATOM      2  C   UNL     1      -2.473   1.229   2.631  0.00  0.00    -0.005 C 
ATOM      3  C   UNL     1      -1.938   2.612   3.005  0.00  0.00    +0.019 C 
ATOM      4  C   UNL     1      -2.486   3.001   4.382  0.00  0.00    +0.080 C 
ATOM      5  C   UNL     1      -3.993   2.957   4.339  0.00  0.00    +0.156 C 
ATOM      6  O   UNL     1      -4.642   3.664   5.080  0.00  0.00    -0.293 OA
ATOM      7  C   UNL     1      -4.670   2.061   3.403  0.00  0.00    +0.046 C 
ATOM      8  C   UNL     1      -3.978   1.258   2.601  0.00  0.00    -0.060 C 
ATOM      9  C   UNL     1      -4.685   0.353   1.623  0.00  0.00    +0.032 C 
ATOM     10  C   UNL     1      -4.249   0.695   0.211  0.00  0.00    +0.008 C 
ATOM     11  C   UNL     1      -2.869   1.344   0.152  0.00  0.00    -0.001 C 
ATOM     12  C   UNL     1      -1.947   0.834   1.245  0.00  0.00    +0.031 C 
ATOM     13  C   UNL     1      -0.562   1.495   1.089  0.00  0.00    +0.119 C 
ATOM     14  C   UNL     1       0.033   1.097  -0.259  0.00  0.00    +0.041 C 
ATOM     15  C   UNL     1      -0.856   1.577  -1.385  0.00  0.00    +0.009 C 
ATOM     16  C   UNL     1      -2.301   1.077  -1.248  0.00  0.00    +0.002 C 
ATOM     17  C   UNL     1      -3.058   2.037  -2.215  0.00  0.00    +0.008 C 
ATOM     18  C   UNL     1      -2.381   3.405  -1.980  0.00  0.00    +0.043 C 
ATOM     19  C   UNL     1      -0.967   3.106  -1.440  0.00  0.00    +0.130 C 
ATOM     20  C   UNL     1      -0.295   1.069  -2.715  0.00  0.00    +0.015 C 
ENDROOT
BRANCH  19  21
ATOM     21  C   UNL     1       0.075   3.670  -2.371  0.00  0.00    +0.175 C 
ATOM     22  O   UNL     1      -0.191   3.854  -3.534  0.00  0.00    -0.293 OA
BRANCH  21  23
ATOM     23  C   UNL     1       1.449   4.005  -1.850  0.00  0.00    +0.147 C 
BRANCH  23  24
ATOM     24  S   UNL     1       2.465   4.660  -3.203  0.00  0.00    -0.147 S 
BRANCH  24  25
ATOM     25  C   UNL     1       4.064   5.009  -2.420  0.00  0.00    +0.009 C 
ATOM     26  C   UNL     1       4.641   3.716  -1.839  0.00  0.00    +0.022 C 
ATOM     27  C   UNL     1       5.030   5.574  -3.464  0.00  0.00    +0.022 C 
ATOM     28  C   UNL     1       3.871   6.030  -1.298  0.00  0.00    +0.022 C 
ENDBRANCH  24  25
ENDBRANCH  23  24
ENDBRANCH  21  23
ENDBRANCH  19  21
BRANCH  19  29
ATOM     29  O   UNL     1      -0.810   3.659  -0.132  0.00  0.00    -0.380 OA
ATOM     30  H   UNL     1      -0.871   4.624  -0.103  0.00  0.00    +0.211 HD
ENDBRANCH  19  29
BRANCH  13  31
ATOM     31  O   UNL     1       0.294   1.046   2.141  0.00  0.00    -0.391 OA
ATOM     32  H   UNL     1       1.188   1.413   2.105  0.00  0.00    +0.210 HD
ENDBRANCH  13  31
TORSDOF 6
