REMARK  Name = ZINC36586758
REMARK  14 active torsions:
REMARK  status: ('A' for Active; 'I' for Inactive)
REMARK    1  A    between atoms: C_1  and  C_2
REMARK    2  A    between atoms: C_2  and  C_3
REMARK    3  A    between atoms: C_3  and  C_4
REMARK    4  A    between atoms: C_4  and  N_5
REMARK    5  A    between atoms: C_6  and  C_8
REMARK    6  A    between atoms: C_8  and  C_10
REMARK    7  A    between atoms: C_8  and  N_18
REMARK    8  A    between atoms: N_18  and  C_29
REMARK    9  A    between atoms: C_19  and  C_21
REMARK   10  A    between atoms: C_22  and  O_28
REMARK   11  A    between atoms: C_26  and  O_27
REMARK   12  A    between atoms: C_29  and  C_30
REMARK   13  A    between atoms: C_29  and  C_31
REMARK   14  A    between atoms: C_29  and  C_32
REMARK                            x       y       z     vdW  Elec       q    Type
REMARK                         _______ _______ _______ _____ _____    ______ ____
ROOT
ATOM      1  C   UNL     1       0.599  -4.430   3.530  0.00  0.00    +0.196 C 
ENDROOT
BRANCH   1   2
ATOM      2  C   UNL     1       1.294  -3.135   3.195  0.00  0.00    +0.018 A 
ATOM      3  C   UNL     1       2.280  -3.110   2.225  0.00  0.00    +0.048 A 
ATOM      4  C   UNL     1       2.918  -1.921   1.919  0.00  0.00    +0.020 A 
ATOM      5  C   UNL     1       2.571  -0.759   2.581  0.00  0.00    +0.003 A 
ATOM      6  C   UNL     1       1.585  -0.784   3.550  0.00  0.00    +0.020 A 
ATOM      7  C   UNL     1       0.943  -1.971   3.854  0.00  0.00    +0.048 A 
ATOM      8 CL   UNL     1      -0.300  -2.000   5.066  0.00  0.00    -0.083 Cl
ATOM      9 CL   UNL     1       2.718  -4.570   1.394  0.00  0.00    -0.083 Cl
ENDBRANCH   1   2
BRANCH   1  11
ATOM     10  N   UNL     1      -1.129  -4.548   1.764  0.00  0.00    -0.313 N 
ATOM     11  C   UNL     1       0.022  -5.030   2.274  0.00  0.00    +0.238 C 
ATOM     12  O   UNL     1       0.593  -5.946   1.721  0.00  0.00    -0.273 OA
ATOM     13  H   UNL     1      -1.586  -3.815   2.207  0.00  0.00    +0.149 HD
BRANCH  10  14
ATOM     14  C   UNL     1      -1.690  -5.131   0.543  0.00  0.00    +0.104 C 
BRANCH  14  15
ATOM     15  C   UNL     1      -2.989  -4.407   0.183  0.00  0.00    +0.018 C 
BRANCH  15  17
ATOM     16  C   UNL     1      -4.874  -4.292  -1.453  0.00  0.00    +0.004 C 
ATOM     17  C   UNL     1      -3.575  -5.016  -1.092  0.00  0.00    -0.002 C 
ENDBRANCH  15  17
ENDBRANCH  14  15
ENDBRANCH  10  14
ENDBRANCH   1  11
BRANCH   1  18
ATOM     18  N   UNL     1       1.563  -5.364   4.119  0.00  0.00    -0.277 N 
ATOM     19  C   UNL     1       2.841  -4.982   4.308  0.00  0.00    +0.255 C 
ATOM     20  O   UNL     1       3.212  -3.887   3.930  0.00  0.00    -0.270 OA
BRANCH  19  21
ATOM     21  C   UNL     1       3.790  -5.891   4.973  0.00  0.00    +0.119 A 
ATOM     22  C   UNL     1       4.512  -6.831   4.222  0.00  0.00    +0.133 A 
ATOM     23  C   UNL     1       5.402  -7.681   4.857  0.00  0.00    +0.046 A 
ATOM     24  C   UNL     1       5.581  -7.605   6.226  0.00  0.00    +0.007 A 
ATOM     25  C   UNL     1       4.875  -6.683   6.976  0.00  0.00    +0.046 A 
ATOM     26  C   UNL     1       3.983  -5.819   6.360  0.00  0.00    +0.133 A 
BRANCH  26  27
ATOM     27  O   UNL     1       3.296  -4.911   7.097  0.00  0.00    -0.506 OA
ATOM     28  H   UNL     1       2.449  -5.236   7.431  0.00  0.00    +0.292 HD
ENDBRANCH  26  27
BRANCH  22  29
ATOM     29  O   UNL     1       4.338  -6.907   2.879  0.00  0.00    -0.506 OA
ATOM     30  H   UNL     1       4.934  -6.339   2.372  0.00  0.00    +0.292 HD
ENDBRANCH  22  29
ENDBRANCH  19  21
BRANCH  18  31
ATOM     31  C   UNL     1       1.137  -6.712   4.501  0.00  0.00    +0.030 C 
ATOM     32  C   UNL     1      -0.377  -6.840   4.317  0.00  0.00    +0.031 C 
ATOM     33  C   UNL     1       1.846  -7.741   3.618  0.00  0.00    +0.031 C 
ATOM     34  C   UNL     1       1.496  -6.964   5.967  0.00  0.00    +0.031 C 
ENDBRANCH  18  31
ENDBRANCH   1  18
TORSDOF 10
