REMARK  Name = ZINC12559512
REMARK  8 active torsions:
REMARK  status: ('A' for Active; 'I' for Inactive)
REMARK    1  A    between atoms: C_2  and  C_3
REMARK    2  A    between atoms: C_3  and  N_4
REMARK    3  A    between atoms: N_4  and  C_5
REMARK    4  A    between atoms: C_5  and  C_7
REMARK    5  A    between atoms: C_8  and  C_28
REMARK    6  A    between atoms: C_13  and  C_19
REMARK    7  A    between atoms: C_19  and  N_20
REMARK    8  A    between atoms: N_20  and  C_21
REMARK                            x       y       z     vdW  Elec       q    Type
REMARK                         _______ _______ _______ _____ _____    ______ ____
ROOT
ATOM      1  C   UNL     1       2.188   2.853  -0.007  0.00  0.00    +0.104 A 
ATOM      2  C   UNL     1       3.490   2.342  -0.224  0.00  0.00    +0.017 A 
ATOM      3  C   UNL     1       3.381   0.970  -0.297  0.00  0.00    +0.005 A 
ATOM      4  C   UNL     1       2.051   0.691  -0.056  0.00  0.00    +0.141 A 
ATOM      5  N   UNL     1       1.298   1.797  -0.001  0.00  0.00    -0.211 N 
ATOM      6  N   UNL     1      -0.016   1.308   0.009  0.00  0.00    -0.150 NA
ATOM      7  C   UNL     1       0.002  -0.004   0.002  0.00  0.00    +0.149 A 
ATOM      8  N   UNL     1       1.286  -0.435   0.028  0.00  0.00    -0.311 N 
ATOM      9  C   UNL     1       1.901  -1.760   0.257  0.00  0.00    +0.125 C 
ATOM     10  C   UNL     1       3.050  -1.528   1.247  0.00  0.00    +0.022 C 
ATOM     11  C   UNL     1       4.391  -1.079   0.649  0.00  0.00    +0.006 C 
ATOM     12  C   UNL     1       4.298  -0.190  -0.581  0.00  0.00    +0.039 C 
ENDROOT
BRANCH   2  13
ATOM     13  C   UNL     1       4.737   3.133  -0.350  0.00  0.00    -0.015 A 
ATOM     14  C   UNL     1       5.742   3.012   0.609  0.00  0.00    +0.008 A 
ATOM     15  C   UNL     1       6.902   3.748   0.484  0.00  0.00    +0.001 A 
ATOM     16  C   UNL     1       7.065   4.612  -0.584  0.00  0.00    +0.000 A 
ATOM     17  C   UNL     1       6.069   4.740  -1.536  0.00  0.00    +0.001 A 
ATOM     18  C   UNL     1       4.906   4.006  -1.424  0.00  0.00    +0.008 A 
ENDBRANCH   2  13
BRANCH   1  19
ATOM     19  C   UNL     1       1.856   4.212   0.172  0.00  0.00    +0.099 C 
ATOM     20  S   UNL     1       3.083   5.405   0.136  0.00  0.00    -0.033 S 
BRANCH  19  21
ATOM     21  N   UNL     1       0.573   4.571   0.372  0.00  0.00    -0.333 N 
ATOM     22  H   UNL     1      -0.123   3.895   0.393  0.00  0.00    +0.147 HD
BRANCH  21  23
ATOM     23  C   UNL     1       0.227   5.983   0.558  0.00  0.00    +0.129 C 
BRANCH  23  25
ATOM     24  C   UNL     1      -1.725   6.723   1.823  0.00  0.00    +0.005 C 
ATOM     25  C   UNL     1      -1.260   6.114   0.761  0.00  0.00    -0.016 C 
ENDBRANCH  23  25
ENDBRANCH  21  23
ENDBRANCH  19  21
ENDBRANCH   1  19
BRANCH   7  26
ATOM     26  C   UNL     1      -1.215  -0.892  -0.029  0.00  0.00    +0.178 C 
BRANCH  26  27
ATOM     27  N   UNL     1      -1.580  -1.172  -1.420  0.00  0.00    -0.337 N 
ATOM     28  H   UNL     1      -1.054  -0.797  -2.144  0.00  0.00    +0.147 HD
BRANCH  27  29
ATOM     29  C   UNL     1      -2.684  -1.981  -1.704  0.00  0.00    +0.028 A 
ATOM     30  C   UNL     1      -3.434  -2.523  -0.669  0.00  0.00    +0.026 A 
ATOM     31  C   UNL     1      -4.527  -3.318  -0.952  0.00  0.00    +0.040 A 
ATOM     32  C   UNL     1      -4.871  -3.582  -2.267  0.00  0.00    +0.124 A 
ATOM     33  C   UNL     1      -4.122  -3.046  -3.301  0.00  0.00    +0.040 A 
ATOM     34  C   UNL     1      -3.031  -2.247  -3.023  0.00  0.00    +0.026 A 
ATOM     35  F   UNL     1      -5.939  -4.363  -2.541  0.00  0.00    -0.205 F 
ENDBRANCH  27  29
ENDBRANCH  26  27
ENDBRANCH   7  26
TORSDOF 8
