REMARK  Name = ZINC60112125
REMARK  5 active torsions:
REMARK  status: ('A' for Active; 'I' for Inactive)
REMARK    1  A    between atoms: C_7  and  C_11
REMARK    2  A    between atoms: C_11  and  C_12
REMARK    3  A    between atoms: C_12  and  C_13
REMARK    4  A    between atoms: N_15  and  C_16
REMARK    5  A    between atoms: N_24  and  C_25
REMARK                            x       y       z     vdW  Elec       q    Type
REMARK                         _______ _______ _______ _____ _____    ______ ____
ROOT
ATOM      1  C   UNL     1      -0.696  -4.775  -1.448  0.00  0.00    +0.214 C 
ATOM      2  O   UNL     1      -0.995  -5.310  -0.402  0.00  0.00    -0.276 OA
ATOM      3  N   UNL     1      -1.204  -5.232  -2.609  0.00  0.00    -0.312 N 
ATOM      4  H   UNL     1      -0.965  -4.804  -3.446  0.00  0.00    +0.149 HD
ENDROOT
BRANCH   3   5
ATOM      5  C   UNL     1      -2.119  -6.377  -2.607  0.00  0.00    +0.076 C 
ATOM      6  C   UNL     1      -1.310  -7.676  -2.618  0.00  0.00    +0.041 C 
ATOM      7  C   UNL     1      -2.268  -8.870  -2.581  0.00  0.00    +0.111 C 
ATOM      8  N   UNL     1      -3.222  -8.745  -3.691  0.00  0.00    -0.286 N 
ATOM      9  C   UNL     1      -3.988  -7.498  -3.828  0.00  0.00    +0.111 C 
ATOM     10  C   UNL     1      -3.010  -6.319  -3.850  0.00  0.00    +0.041 C 
ATOM     11  C   UNL     1      -3.392  -9.755  -4.568  0.00  0.00    +0.302 C 
ATOM     12  O   UNL     1      -2.686 -10.742  -4.502  0.00  0.00    -0.253 OA
ATOM     13  N   UNL     1      -4.344  -9.669  -5.518  0.00  0.00    -0.296 N 
ATOM     14  H   UNL     1      -4.859  -8.853  -5.617  0.00  0.00    +0.151 HD
BRANCH  13  15
ATOM     15  C   UNL     1      -4.602 -10.809  -6.401  0.00  0.00    +0.074 C 
ATOM     16  C   UNL     1      -3.628 -10.771  -7.581  0.00  0.00    +0.022 C 
ATOM     17  C   UNL     1      -3.897 -11.962  -8.503  0.00  0.00    +0.002 C 
ATOM     18  C   UNL     1      -5.334 -11.888  -9.025  0.00  0.00    +0.000 C 
ATOM     19  C   UNL     1      -6.308 -11.926  -7.845  0.00  0.00    +0.002 C 
ATOM     20  C   UNL     1      -6.038 -10.736  -6.923  0.00  0.00    +0.022 C 
ENDBRANCH  13  15
ENDBRANCH   3   5
BRANCH   1  21
ATOM     21  C   UNL     1       0.245  -3.597  -1.450  0.00  0.00    +0.100 C 
BRANCH  21  22
ATOM     22  C   UNL     1       0.672  -3.284  -0.014  0.00  0.00    +0.046 C 
BRANCH  22  29
ATOM     23  C   UNL     1       0.002   1.356   0.011  0.00  0.00    +0.001 A 
ATOM     24  C   UNL     1       1.190   2.074   0.006  0.00  0.00    +0.002 A 
ATOM     25  C   UNL     1       2.404   1.423  -0.005  0.00  0.00    +0.026 A 
ATOM     26  C   UNL     1       2.443   0.032  -0.012  0.00  0.00    +0.047 A 
ATOM     27  C   UNL     1       1.236  -0.690  -0.007  0.00  0.00    +0.003 A 
ATOM     28  C   UNL     1       0.017  -0.010   0.004  0.00  0.00    +0.010 A 
ATOM     29  C   UNL     1       1.612  -2.106  -0.016  0.00  0.00    -0.022 A 
ATOM     30  C   UNL     1       2.954  -2.156  -0.025  0.00  0.00    +0.087 A 
ATOM     31  N   UNL     1       3.467  -0.887  -0.023  0.00  0.00    -0.360 N 
ATOM     32  H   UNL     1       4.412  -0.669  -0.028  0.00  0.00    +0.165 HD
ENDBRANCH  22  29
ENDBRANCH  21  22
ENDBRANCH   1  21
TORSDOF 5
