REMARK  Name = ZINC22635970
REMARK  6 active torsions:
REMARK  status: ('A' for Active; 'I' for Inactive)
REMARK    1  A    between atoms: C_1  and  C_2
REMARK    2  A    between atoms: C_2  and  N_3
REMARK    3  A    between atoms: C_11  and  O_28
REMARK    4  A    between atoms: C_13  and  C_16
REMARK    5  A    between atoms: C_25  and  O_26
REMARK    6  A    between atoms: O_26  and  C_27
REMARK                            x       y       z     vdW  Elec       q    Type
REMARK                         _______ _______ _______ _____ _____    ______ ____
ROOT
ATOM      1  N   UNL     1       3.311   3.477   0.286  0.00  0.00    +0.383 N 
ATOM      2  C   UNL     1       3.962   2.437  -0.523  0.00  0.00    -0.074 C 
ATOM      3  C   UNL     1       3.498   1.050  -0.070  0.00  0.00    +0.018 C 
ATOM      4  C   UNL     1       1.973   1.042  -0.050  0.00  0.00    -0.027 A 
ATOM      5  C   UNL     1       1.291   2.212  -0.049  0.00  0.00    -0.021 A 
ATOM      6  S   UNL     1      -0.418   1.742  -0.028  0.00  0.00    -0.080 S 
ATOM      7  C   UNL     1      -0.226   0.042  -0.021  0.00  0.00    +0.080 A 
ATOM      8  C   UNL     1       1.161  -0.160  -0.033  0.00  0.00    +0.067 A 
ATOM      9  C   UNL     1       1.644  -1.564  -0.024  0.00  0.00    +0.220 C 
ATOM     10  N   UNL     1       0.769  -2.507   0.196  0.00  0.00    -0.223 NA
ATOM     11  C   UNL     1      -0.630  -2.280   0.533  0.00  0.00    +0.228 C 
ATOM     12  N   UNL     1      -1.121  -1.000  -0.011  0.00  0.00    -0.313 N 
ATOM     13  C   UNL     1       1.881   3.587  -0.060  0.00  0.00    -0.035 C 
ATOM     14  H   UNL     1      -2.154  -0.920  -0.381  0.00  0.00    +0.149 HD
ATOM     15  H   UNL     1       3.391   3.186   1.343  0.00  0.00    -0.081 HD
ENDROOT
BRANCH  11  16
ATOM     16  C   UNL     1      -0.779  -2.266   2.032  0.00  0.00    +0.044 A 
ATOM     17  C   UNL     1      -1.997  -1.882   2.618  0.00  0.00    -0.008 A 
ATOM     18  C   UNL     1      -3.102  -1.517   1.829  0.00  0.00    +0.009 A 
ATOM     19  C   UNL     1      -4.268  -1.156   2.431  0.00  0.00    +0.001 A 
ATOM     20  C   UNL     1      -4.387  -1.149   3.819  0.00  0.00    +0.001 A 
ATOM     21  C   UNL     1      -3.340  -1.501   4.614  0.00  0.00    +0.008 A 
ATOM     22  C   UNL     1      -2.119  -1.879   4.030  0.00  0.00    -0.017 A 
ATOM     23  C   UNL     1      -1.017  -2.250   4.820  0.00  0.00    +0.012 A 
ATOM     24  C   UNL     1       0.150  -2.611   4.223  0.00  0.00    +0.046 A 
ATOM     25  C   UNL     1       0.272  -2.620   2.830  0.00  0.00    +0.127 A 
BRANCH  25  26
ATOM     26  O   UNL     1       1.451  -2.986   2.262  0.00  0.00    -0.495 OA
ATOM     27  C   UNL     1       2.513  -3.347   3.148  0.00  0.00    +0.277 C 
ENDBRANCH  25  26
ENDBRANCH  11  16
BRANCH   1  29
ATOM     28  C   UNL     1       4.003   5.162  -1.351  0.00  0.00    -0.017 C 
ATOM     29  C   UNL     1       3.991   4.770   0.127  0.00  0.00    -0.082 C 
ENDBRANCH   1  29
BRANCH   9  30
ATOM     30  O   UNL     1       2.947  -1.857  -0.238  0.00  0.00    -0.492 OA
ATOM     31  H   UNL     1       3.285  -2.903  -0.228  0.00  0.00    +0.294 HD
ENDBRANCH   9  30
TORSDOF 4
