REMARK  Name = ZINC20895253
REMARK  8 active torsions:
REMARK  status: ('A' for Active; 'I' for Inactive)
REMARK    1  A    between atoms: C_1  and  C_2
REMARK    2  A    between atoms: C_5  and  C_14
REMARK    3  A    between atoms: C_12  and  C_13
REMARK    4  A    between atoms: C_14  and  O_15
REMARK    5  A    between atoms: O_15  and  C_16
REMARK    6  A    between atoms: C_16  and  C_18
REMARK    7  A    between atoms: C_22  and  N_23
REMARK    8  A    between atoms: C_24  and  C_26
REMARK                            x       y       z     vdW  Elec       q    Type
REMARK                         _______ _______ _______ _____ _____    ______ ____
ROOT
ATOM      1  C   UNL     1      -3.945   3.090   0.051  0.00  0.00    +0.342 C 
ATOM      2  O   UNL     1      -4.063   3.699  -0.995  0.00  0.00    -0.245 OA
ENDROOT
BRANCH   1   3
ATOM      3  C   UNL     1      -3.680   1.650   0.034  0.00  0.00    +0.091 A 
ATOM      4  C   UNL     1      -4.765   0.683   0.028  0.00  0.00    -0.021 A 
ATOM      5  C   UNL     1      -4.381  -0.611   0.020  0.00  0.00    -0.004 A 
ATOM      6  S   UNL     1      -2.612  -0.560   0.012  0.00  0.00    -0.077 S 
ATOM      7  C   UNL     1      -2.381   1.157   0.020  0.00  0.00    +0.086 A 
ATOM      8  C   UNL     1      -5.271  -1.817   0.018  0.00  0.00    +0.043 C 
ATOM      9  C   UNL     1      -6.689  -1.372   0.405  0.00  0.00    +0.005 C 
ATOM     10  C   UNL     1      -7.062  -0.140  -0.424  0.00  0.00    +0.005 C 
ATOM     11  C   UNL     1      -6.240   1.065   0.035  0.00  0.00    +0.037 C 
BRANCH   7  12
ATOM     12  N   UNL     1      -1.191   1.867   0.018  0.00  0.00    -0.280 N 
ATOM     13  C   UNL     1      -0.014   1.209   0.009  0.00  0.00    +0.214 C 
ATOM     14  O   UNL     1       0.002  -0.004   0.002  0.00  0.00    -0.276 OA
ATOM     15  C   UNL     1       1.280   1.980   0.001  0.00  0.00    +0.109 C 
ATOM     16  H   UNL     1      -1.205   2.966   0.024  0.00  0.00    +0.155 HD
ENDBRANCH   7  12
ENDBRANCH   1   3
BRANCH   1  17
ATOM     17  O   UNL     1      -4.058   3.741   1.227  0.00  0.00    -0.456 OA
BRANCH  17  18
ATOM     18  C   UNL     1      -4.322   5.168   1.167  0.00  0.00    +0.269 C 
BRANCH  18  23
ATOM     19  C   UNL     1      -5.250  10.323   0.832  0.00  0.00    +0.044 C 
ATOM     20  C   UNL     1      -5.073   9.364   1.981  0.00  0.00    -0.047 A 
ATOM     21  C   UNL     1      -4.835   8.031   1.729  0.00  0.00    +0.015 A 
ATOM     22  C   UNL     1      -4.671   7.145   2.799  0.00  0.00    +0.024 A 
ATOM     23  C   UNL     1      -4.416   5.720   2.567  0.00  0.00    +0.007 A 
ATOM     24  C   UNL     1      -4.261   4.913   3.646  0.00  0.00    +0.099 A 
ATOM     25  C   UNL     1      -4.353   5.455   4.947  0.00  0.00    +0.338 A 
ATOM     26  O   UNL     1      -4.213   4.720   5.907  0.00  0.00    -0.245 OA
ATOM     27  O   UNL     1      -4.593   6.760   5.151  0.00  0.00    -0.422 OA
ATOM     28  C   UNL     1      -4.757   7.617   4.120  0.00  0.00    +0.140 A 
ATOM     29  C   UNL     1      -5.003   8.963   4.350  0.00  0.00    +0.050 A 
ATOM     30  C   UNL     1      -5.152   9.828   3.286  0.00  0.00    -0.044 A 
ATOM     31  C   UNL     1      -5.414  11.290   3.543  0.00  0.00    +0.044 C 
ENDBRANCH  18  23
ENDBRANCH  17  18
ENDBRANCH   1  17
TORSDOF 5
