REMARK  Name = ZINC39691249
REMARK  9 active torsions:
REMARK  status: ('A' for Active; 'I' for Inactive)
REMARK    1  A    between atoms: C_1  and  C_2
REMARK    2  A    between atoms: C_7  and  C_8
REMARK    3  A    between atoms: C_8  and  C_9
REMARK    4  A    between atoms: C_9  and  N_10
REMARK    5  A    between atoms: C_11  and  C_13
REMARK    6  A    between atoms: C_24  and  C_26
REMARK    7  A    between atoms: C_26  and  O_27
REMARK    8  A    between atoms: O_27  and  C_28
REMARK    9  A    between atoms: C_38  and  C_39
REMARK                            x       y       z     vdW  Elec       q    Type
REMARK                         _______ _______ _______ _____ _____    ______ ____
ROOT
ATOM      1  C   UNL     1      -2.571   2.266   6.027  0.00  0.00    +0.100 C 
ATOM      2  C   UNL     1      -1.717   3.548   5.913  0.00  0.00    +0.121 C 
ATOM      3  N   UNL     1      -2.690   4.619   5.591  0.00  0.00    -0.297 N 
ATOM      4  C   UNL     1      -3.877   4.299   6.419  0.00  0.00    +0.115 C 
ATOM      5  C   UNL     1      -3.988   2.763   6.362  0.00  0.00    -0.004 C 
ATOM      6  C   UNL     1      -4.967   2.345   5.269  0.00  0.00    -0.010 C 
ATOM      7  C   UNL     1      -6.377   2.801   5.653  0.00  0.00    -0.082 C 
ATOM      8  N   UNL     1      -6.757   2.197   6.936  0.00  0.00    +0.379 N 
ATOM      9  C   UNL     1      -5.866   2.676   7.999  0.00  0.00    -0.082 C 
ATOM     10  C   UNL     1      -4.434   2.215   7.714  0.00  0.00    -0.010 C 
ATOM     11  C   UNL     1      -2.531   5.650   4.738  0.00  0.00    +0.253 C 
ATOM     12  O   UNL     1      -3.428   6.451   4.581  0.00  0.00    -0.272 OA
ATOM     13  H   UNL     1      -7.709   2.449   7.157  0.00  0.00    -0.086 HD
ATOM     14  H   UNL     1      -6.686   1.192   6.866  0.00  0.00    -0.086 HD
ENDROOT
BRANCH   1  16
ATOM     15  N   UNL     1      -2.735   0.181   4.705  0.00  0.00    -0.315 N 
ATOM     16  C   UNL     1      -2.574   1.519   4.718  0.00  0.00    +0.218 C 
ATOM     17  O   UNL     1      -2.430   2.123   3.675  0.00  0.00    -0.275 OA
ATOM     18  H   UNL     1      -2.850  -0.301   5.539  0.00  0.00    +0.149 HD
BRANCH  15  19
ATOM     19  C   UNL     1      -2.738  -0.544   3.432  0.00  0.00    +0.109 C 
BRANCH  19  20
ATOM     20  C   UNL     1      -2.937  -2.038   3.697  0.00  0.00    +0.054 C 
BRANCH  20  27
ATOM     21  C   UNL     1      -0.440  -2.865   2.502  0.00  0.00    +0.044 C 
ATOM     22  C   UNL     1      -1.745  -3.180   1.816  0.00  0.00    -0.047 A 
ATOM     23  C   UNL     1      -1.747  -3.870   0.618  0.00  0.00    +0.003 A 
ATOM     24  C   UNL     1      -2.944  -4.159  -0.011  0.00  0.00    +0.000 A 
ATOM     25  C   UNL     1      -4.138  -3.758   0.559  0.00  0.00    +0.000 A 
ATOM     26  C   UNL     1      -4.136  -3.070   1.757  0.00  0.00    +0.004 A 
ATOM     27  C   UNL     1      -2.939  -2.784   2.388  0.00  0.00    -0.043 A 
ENDBRANCH  20  27
ENDBRANCH  19  20
ENDBRANCH  15  19
ENDBRANCH   1  16
BRANCH  11  28
ATOM     28  C   UNL     1      -1.239   5.807   3.978  0.00  0.00    +0.324 C 
BRANCH  28  29
ATOM     29  O   UNL     1      -1.314   6.966   3.145  0.00  0.00    -0.479 OA
BRANCH  29  30
ATOM     30  C   UNL     1      -0.223   7.253   2.388  0.00  0.00    +0.164 A 
ATOM     31  C   UNL     1       0.892   6.436   2.440  0.00  0.00    +0.049 A 
ATOM     32  C   UNL     1       2.012   6.719   1.672  0.00  0.00    +0.004 A 
ATOM     33  C   UNL     1       2.030   7.819   0.845  0.00  0.00    +0.012 A 
ATOM     34  C   UNL     1       0.911   8.655   0.779  0.00  0.00    +0.024 A 
ATOM     35  C   UNL     1      -0.227   8.368   1.552  0.00  0.00    +0.181 A 
ATOM     36  O   UNL     1      -1.308   9.175   1.483  0.00  0.00    -0.418 OA
ATOM     37  C   UNL     1      -1.328  10.252   0.684  0.00  0.00    +0.338 A 
ATOM     38  O   UNL     1      -2.325  10.951   0.655  0.00  0.00    -0.245 OA
ATOM     39  C   UNL     1      -0.223  10.597  -0.124  0.00  0.00    +0.096 A 
ATOM     40  C   UNL     1       0.899   9.834  -0.093  0.00  0.00    -0.033 A 
ATOM     41  C   UNL     1       2.094  10.179  -0.944  0.00  0.00    +0.045 C 
ENDBRANCH  29  30
ENDBRANCH  28  29
ENDBRANCH  11  28
TORSDOF 7
