REMARK  Name = ZINC02249244
REMARK  8 active torsions:
REMARK  status: ('A' for Active; 'I' for Inactive)
REMARK    1  A    between atoms: C_1  and  O_2
REMARK    2  A    between atoms: O_2  and  C_3
REMARK    3  A    between atoms: C_5  and  C_13
REMARK    4  A    between atoms: C_7  and  O_11
REMARK    5  A    between atoms: C_8  and  O_9
REMARK    6  A    between atoms: O_9  and  C_10
REMARK    7  A    between atoms: O_11  and  C_12
REMARK    8  A    between atoms: N_19  and  C_20
REMARK                            x       y       z     vdW  Elec       q    Type
REMARK                         _______ _______ _______ _____ _____    ______ ____
ROOT
ATOM      1  C   UNL     1      -4.852   0.226   0.038  0.00  0.00    +0.028 C 
ATOM      2  C   UNL     1      -4.865   1.490  -0.457  0.00  0.00    +0.078 C 
ATOM      3  C   UNL     1      -3.793   2.239  -1.141  0.00  0.00    +0.256 C 
ATOM      4  O   UNL     1      -2.700   1.743  -1.343  0.00  0.00    -0.269 OA
ATOM      5  N   UNL     1      -4.074   3.472  -1.527  0.00  0.00    -0.260 N 
ATOM      6  C   UNL     1      -5.318   4.015  -1.289  0.00  0.00    +0.166 C 
ATOM      7  N   UNL     1      -5.760   5.212  -1.602  0.00  0.00    -0.226 NA
ATOM      8  S   UNL     1      -6.186   2.693  -0.461  0.00  0.00    -0.049 S 
ATOM      9  H   UNL     1      -3.398   3.999  -1.980  0.00  0.00    +0.157 HD
ENDROOT
BRANCH   7  10
ATOM     10  C   UNL     1      -4.940   6.097  -2.250  0.00  0.00    +0.067 A 
ATOM     11  C   UNL     1      -3.618   6.263  -1.832  0.00  0.00    +0.030 A 
ATOM     12  C   UNL     1      -2.797   7.156  -2.488  0.00  0.00    +0.040 A 
ATOM     13  C   UNL     1      -3.281   7.887  -3.561  0.00  0.00    +0.124 A 
ATOM     14  C   UNL     1      -4.592   7.726  -3.981  0.00  0.00    +0.040 A 
ATOM     15  C   UNL     1      -5.421   6.832  -3.336  0.00  0.00    +0.030 A 
ATOM     16  F   UNL     1      -2.472   8.761  -4.200  0.00  0.00    -0.205 F 
ENDBRANCH   7  10
BRANCH   1  19
ATOM     17  C   UNL     1      -1.221  -0.594   0.504  0.00  0.00    +0.166 A 
ATOM     18  C   UNL     1      -2.403   0.119   0.451  0.00  0.00    +0.057 A 
ATOM     19  C   UNL     1      -3.593  -0.527   0.094  0.00  0.00    -0.017 A 
ATOM     20  C   UNL     1      -3.579  -1.894  -0.208  0.00  0.00    +0.057 A 
ATOM     21  C   UNL     1      -2.392  -2.600  -0.153  0.00  0.00    +0.166 A 
ATOM     22  C   UNL     1      -1.210  -1.952   0.197  0.00  0.00    +0.204 A 
BRANCH  17  24
ATOM     23  C   UNL     1      -0.148   1.427   1.152  0.00  0.00    +0.277 C 
ATOM     24  O   UNL     1      -0.065   0.033   0.850  0.00  0.00    -0.491 OA
ENDBRANCH  17  24
BRANCH  22  25
ATOM     25  O   UNL     1      -0.044  -2.649   0.244  0.00  0.00    -0.488 OA
ATOM     26  C   UNL     1       0.297  -3.259   1.491  0.00  0.00    +0.277 C 
ENDBRANCH  22  25
BRANCH  21  27
ATOM     27  O   UNL     1      -2.377  -3.928  -0.446  0.00  0.00    -0.491 OA
ATOM     28  C   UNL     1      -3.625  -4.527  -0.802  0.00  0.00    +0.277 C 
ENDBRANCH  21  27
ENDBRANCH   1  19
TORSDOF 5
