REMARK  Name = ZINC04172149
REMARK  3 active torsions:
REMARK  status: ('A' for Active; 'I' for Inactive)
REMARK    1  A    between atoms: C_1  and  C_2
REMARK    2  A    between atoms: C_2  and  C_4
REMARK    3  A    between atoms: C_17  and  C_20
REMARK                            x       y       z     vdW  Elec       q    Type
REMARK                         _______ _______ _______ _____ _____    ______ ____
ROOT
ATOM      1  C   UNL     1      -1.259  -0.755   0.010  0.00  0.00    +0.017 A 
ATOM      2  C   UNL     1      -2.483  -0.073   0.020  0.00  0.00    +0.013 A 
ATOM      3  C   UNL     1      -3.649  -0.781   0.033  0.00  0.00    +0.024 A 
ATOM      4  C   UNL     1      -3.627  -2.178   0.036  0.00  0.00    +0.031 A 
ATOM      5  C   UNL     1      -2.419  -2.860   0.015  0.00  0.00    -0.019 A 
ATOM      6  C   UNL     1      -1.243  -2.153   0.002  0.00  0.00    +0.017 A 
ATOM      7  C   UNL     1      -2.345  -4.361  -0.021  0.00  0.00    +0.049 C 
ATOM      8  C   UNL     1      -1.424  -4.755  -1.165  0.00  0.00    -0.023 C 
ATOM      9  C   UNL     1      -2.118  -5.142  -2.203  0.00  0.00    -0.030 C 
ATOM     10  C   UNL     1      -3.604  -5.080  -1.914  0.00  0.00    +0.033 C 
ATOM     11  C   UNL     1      -3.681  -5.018  -0.356  0.00  0.00    +0.029 C 
ATOM     12  C   UNL     1      -4.905  -4.310   0.143  0.00  0.00    +0.106 C 
ATOM     13  N   UNL     1      -4.828  -2.864   0.066  0.00  0.00    -0.336 N 
ATOM     14  H   UNL     1      -5.653  -2.354   0.059  0.00  0.00    +0.147 HD
ENDROOT
BRANCH  12  15
ATOM     15  C   UNL     1      -6.082  -4.746  -0.692  0.00  0.00    -0.009 A 
ATOM     16  C   UNL     1      -6.472  -3.991  -1.783  0.00  0.00    +0.056 A 
ATOM     17  C   UNL     1      -7.553  -4.389  -2.551  0.00  0.00    +0.167 A 
ATOM     18  C   UNL     1      -8.246  -5.552  -2.222  0.00  0.00    +0.167 A 
ATOM     19  C   UNL     1      -7.851  -6.304  -1.128  0.00  0.00    +0.065 A 
ATOM     20  C   UNL     1      -6.766  -5.903  -0.368  0.00  0.00    +0.027 A 
ATOM     21 BR   UNL     1      -6.224  -6.935   1.121  0.00  0.00    -0.050 Br
ATOM     22  O   UNL     1      -9.258  -5.726  -3.121  0.00  0.00    -0.453 OA
ATOM     23  C   UNL     1      -9.431  -4.445  -3.757  0.00  0.00    +0.466 C 
ATOM     24  O   UNL     1      -8.131  -3.835  -3.656  0.00  0.00    -0.453 OA
ENDBRANCH  12  15
BRANCH   1  26
ATOM     25  C   UNL     1      -0.018   1.503   0.010  0.00  0.00    +0.091 C 
ATOM     26  C   UNL     1       0.002  -0.004   0.002  0.00  0.00    +0.160 C 
ATOM     27  O   UNL     1       1.061  -0.596  -0.011  0.00  0.00    -0.292 OA
ENDBRANCH   1  26
TORSDOF 2
