REMARK  Name = ZINC19524768
REMARK  9 active torsions:
REMARK  status: ('A' for Active; 'I' for Inactive)
REMARK    1  A    between atoms: C_1  and  C_2
REMARK    2  A    between atoms: C_2  and  N_3
REMARK    3  A    between atoms: C_5  and  C_12
REMARK    4  A    between atoms: C_12  and  C_14
REMARK    5  A    between atoms: C_12  and  O_34
REMARK    6  A    between atoms: C_14  and  N_15
REMARK    7  A    between atoms: C_22  and  O_33
REMARK    8  A    between atoms: C_27  and  O_31
REMARK    9  A    between atoms: O_31  and  C_32
REMARK                            x       y       z     vdW  Elec       q    Type
REMARK                         _______ _______ _______ _____ _____    ______ ____
ROOT
ATOM      1  N   UNL     1      -7.807   2.189   1.373  0.00  0.00    +0.382 N 
ATOM      2  C   UNL     1      -7.869   3.163   0.276  0.00  0.00    -0.075 C 
ATOM      3  C   UNL     1      -9.303   3.246  -0.253  0.00  0.00    +0.029 C 
ATOM      4  C   UNL     1     -10.239   3.662   0.883  0.00  0.00    +0.110 C 
ATOM      5  C   UNL     1     -10.118   2.662   2.034  0.00  0.00    +0.029 C 
ATOM      6  C   UNL     1      -8.660   2.598   2.497  0.00  0.00    -0.075 C 
ATOM      7  C   UNL     1     -11.684   3.686   0.375  0.00  0.00    +0.084 C 
ATOM      8  C   UNL     1     -12.605   3.994   1.558  0.00  0.00    +0.152 C 
ATOM      9  C   UNL     1     -12.068   5.173   2.328  0.00  0.00    +0.023 A 
ATOM     10  C   UNL     1     -12.917   5.845   3.194  0.00  0.00    +0.013 A 
ATOM     11  C   UNL     1     -12.461   6.927   3.919  0.00  0.00    +0.046 A 
ATOM     12  C   UNL     1     -11.146   7.347   3.784  0.00  0.00    +0.124 A 
ATOM     13  C   UNL     1     -10.295   6.680   2.918  0.00  0.00    +0.091 A 
ATOM     14  C   UNL     1     -10.756   5.592   2.186  0.00  0.00    +0.130 A 
ATOM     15  O   UNL     1      -9.894   4.969   1.340  0.00  0.00    -0.485 OA
ATOM     16  H   UNL     1      -8.191   1.231   0.993  0.00  0.00    -0.082 HD
ENDROOT
BRANCH  12  17
ATOM     17  O   UNL     1     -10.693   8.410   4.499  0.00  0.00    -0.495 OA
ATOM     18  C   UNL     1     -11.626   9.049   5.372  0.00  0.00    +0.277 C 
ENDBRANCH  12  17
BRANCH   8  19
ATOM     19  O   UNL     1     -13.915   4.298   1.075  0.00  0.00    -0.387 OA
ATOM     20  H   UNL     1     -14.719   4.546   1.783  0.00  0.00    +0.210 HD
ENDBRANCH   8  19
BRANCH   1  21
ATOM     21  C   UNL     1      -6.421   1.980   1.814  0.00  0.00    -0.042 C 
BRANCH  21  22
ATOM     22  C   UNL     1      -6.320   0.652   2.566  0.00  0.00    +0.130 C 
BRANCH  22  25
ATOM     23  N   UNL     1      -2.785  -0.222   3.110  0.00  0.00    -0.347 N 
ATOM     24  C   UNL     1      -3.946  -0.248   2.386  0.00  0.00    +0.093 A 
ATOM     25  C   UNL     1      -4.901   0.443   3.028  0.00  0.00    +0.004 A 
ATOM     26  C   UNL     1      -4.300   0.963   4.259  0.00  0.00    +0.005 A 
ATOM     27  C   UNL     1      -2.966   0.513   4.260  0.00  0.00    +0.049 A 
ATOM     28  C   UNL     1      -2.133   0.855   5.320  0.00  0.00    +0.026 A 
ATOM     29  C   UNL     1      -2.621   1.626   6.353  0.00  0.00    +0.002 A 
ATOM     30  C   UNL     1      -3.937   2.067   6.347  0.00  0.00    +0.001 A 
ATOM     31  C   UNL     1      -4.773   1.743   5.315  0.00  0.00    +0.010 A 
BRANCH  23  33
ATOM     32  C   UNL     1      -1.444  -2.249   3.384  0.00  0.00    +0.027 C 
ATOM     33  C   UNL     1      -1.533  -0.875   2.718  0.00  0.00    +0.118 C 
ENDBRANCH  23  33
ENDBRANCH  22  25
BRANCH  22  34
ATOM     34  O   UNL     1      -6.700  -0.417   1.697  0.00  0.00    -0.389 OA
ATOM     35  H   UNL     1      -7.708  -0.437   1.258  0.00  0.00    +0.210 HD
ENDBRANCH  22  34
ENDBRANCH  21  22
ENDBRANCH   1  21
TORSDOF 7
