REMARK  Name = ZINC02294423
REMARK  9 active torsions:
REMARK  status: ('A' for Active; 'I' for Inactive)
REMARK    1  A    between atoms: C_1  and  N_2
REMARK    2  A    between atoms: N_2  and  C_3
REMARK    3  A    between atoms: N_2  and  C_4
REMARK    4  A    between atoms: C_20  and  N_30
REMARK    5  A    between atoms: C_26  and  N_27
REMARK    6  A    between atoms: N_27  and  C_28
REMARK    7  A    between atoms: N_27  and  C_29
REMARK    8  A    between atoms: N_30  and  C_31
REMARK    9  A    between atoms: N_30  and  C_32
REMARK                            x       y       z     vdW  Elec       q    Type
REMARK                         _______ _______ _______ _____ _____    ______ ____
ROOT
ATOM      1  C   UNL     1      -0.816   2.944   1.213  0.00  0.00    +0.040 A 
ATOM      2  C   UNL     1       0.346   3.710   1.175  0.00  0.00    +0.024 A 
ATOM      3  C   UNL     1       0.258   5.084   1.182  0.00  0.00    +0.002 A 
ATOM      4  C   UNL     1      -0.978   5.706   1.223  0.00  0.00    +0.005 A 
ATOM      5  C   UNL     1      -2.149   4.970   1.228  0.00  0.00    -0.021 A 
ATOM      6  C   UNL     1      -2.068   3.574   1.252  0.00  0.00    +0.047 A 
ATOM      7  C   UNL     1      -3.306   2.774   1.339  0.00  0.00    +0.188 C 
ATOM      8  O   UNL     1      -3.296   1.555   1.344  0.00  0.00    -0.287 OA
ATOM      9  C   UNL     1      -4.592   3.487   1.428  0.00  0.00    +0.048 C 
ATOM     10  C   UNL     1      -4.642   4.801   1.375  0.00  0.00    -0.007 C 
ATOM     11  C   UNL     1      -3.457   5.708   1.204  0.00  0.00    +0.041 C 
ATOM     12  C   UNL     1      -3.625   6.442  -0.129  0.00  0.00    +0.025 C 
ATOM     13  C   UNL     1      -2.587   7.541  -0.301  0.00  0.00    +0.037 C 
ATOM     14  C   UNL     1      -2.552   8.452   0.897  0.00  0.00    -0.039 A 
ATOM     15  C   UNL     1      -2.062   9.715   0.742  0.00  0.00    +0.006 A 
ATOM     16  C   UNL     1      -1.995  10.587   1.818  0.00  0.00    +0.024 A 
ATOM     17  C   UNL     1      -2.450  10.208   3.070  0.00  0.00    +0.039 A 
ATOM     18  C   UNL     1      -3.013   8.932   3.253  0.00  0.00    +0.025 A 
ATOM     19  C   UNL     1      -3.010   8.024   2.154  0.00  0.00    -0.007 A 
ATOM     20  C   UNL     1      -3.474   6.712   2.335  0.00  0.00    -0.025 A 
ATOM     21  C   UNL     1      -3.955   6.314   3.546  0.00  0.00    +0.007 A 
ATOM     22  C   UNL     1      -4.023   7.203   4.608  0.00  0.00    +0.024 A 
ATOM     23  C   UNL     1      -3.573   8.506   4.473  0.00  0.00    +0.039 A 
ENDROOT
BRANCH   1  25
ATOM     24  C   UNL     1      -0.013   1.086   0.008  0.00  0.00    +0.129 C 
ATOM     25  N   UNL     1      -0.700   1.560   1.217  0.00  0.00    -0.335 N 
ATOM     26  C   UNL     1      -0.016   1.091   2.429  0.00  0.00    +0.129 C 
ENDBRANCH   1  25
BRANCH  23  27
ATOM     27  N   UNL     1      -3.719   9.344   5.577  0.00  0.00    -0.335 N 
ATOM     28  C   UNL     1      -5.133   9.476   5.953  0.00  0.00    +0.129 C 
ATOM     29  C   UNL     1      -2.915   8.867   6.710  0.00  0.00    +0.129 C 
ENDBRANCH  23  27
BRANCH  17  30
ATOM     30  N   UNL     1      -2.315  11.135   4.102  0.00  0.00    -0.335 N 
ATOM     31  C   UNL     1      -0.905  11.493   4.307  0.00  0.00    +0.129 C 
ATOM     32  C   UNL     1      -3.130  12.330   3.845  0.00  0.00    +0.129 C 
ENDBRANCH  17  30
TORSDOF 3
