REMARK  Name = ZINC51347581
REMARK  14 active torsions:
REMARK  status: ('A' for Active; 'I' for Inactive)
REMARK    1  A    between atoms: C_1  and  C_2
REMARK    2  A    between atoms: C_2  and  N_3
REMARK    3  A    between atoms: N_3  and  C_4
REMARK    4  A    between atoms: N_3  and  C_6
REMARK    5  A    between atoms: C_4  and  C_5
REMARK    6  A    between atoms: C_6  and  C_7
REMARK    7  A    between atoms: C_7  and  N_8
REMARK    8  A    between atoms: C_9  and  C_11
REMARK    9  A    between atoms: C_11  and  O_12
REMARK   10  A    between atoms: O_12  and  N_13
REMARK   11  A    between atoms: C_17  and  C_38
REMARK   12  A    between atoms: C_22  and  C_37
REMARK   13  A    between atoms: C_33  and  C_34
REMARK   14  A    between atoms: C_33  and  O_36
REMARK                            x       y       z     vdW  Elec       q    Type
REMARK                         _______ _______ _______ _____ _____    ______ ____
ROOT
ATOM      1  N   UNL     1       3.237  -9.482   4.593  0.00  0.00    -0.089 NA
ATOM      2  C   UNL     1       3.853  -9.887   5.661  0.00  0.00    +0.080 C 
ATOM      3  C   UNL     1       4.289  -8.912   6.736  0.00  0.00    +0.059 C 
ATOM      4  C   UNL     1       5.691  -9.311   7.190  0.00  0.00    +0.017 C 
ATOM      5  C   UNL     1       5.730 -10.741   7.714  0.00  0.00    -0.007 C 
ATOM      6  C   UNL     1       7.177 -11.163   7.939  0.00  0.00    +0.002 C 
ATOM      7  C   UNL     1       8.098 -10.685   6.826  0.00  0.00    +0.005 C 
ATOM      8  C   UNL     1       9.568 -11.012   7.154  0.00  0.00    +0.011 C 
ATOM      9  C   UNL     1       9.713 -12.502   7.336  0.00  0.00    +0.011 C 
ATOM     10  C   UNL     1       8.753 -12.993   8.434  0.00  0.00    +0.002 C 
ATOM     11  C   UNL     1       7.311 -12.672   8.170  0.00  0.00    -0.003 C 
ATOM     12  C   UNL     1       6.690 -13.452   7.019  0.00  0.00    +0.008 C 
ATOM     13  C   UNL     1       5.174 -13.191   7.035  0.00  0.00    +0.031 C 
ATOM     14  C   UNL     1       4.981 -11.698   6.840  0.00  0.00    -0.062 C 
ATOM     15  C   UNL     1       4.135 -11.313   5.892  0.00  0.00    +0.026 C 
ATOM     16  C   UNL     1       9.160 -14.464   8.575  0.00  0.00    +0.008 C 
ATOM     17  C   UNL     1      10.713 -14.388   8.505  0.00  0.00    +0.049 C 
ATOM     18  C   UNL     1      11.062 -13.018   7.865  0.00  0.00    +0.132 C 
ATOM     19  C   UNL     1       9.495 -13.209   5.993  0.00  0.00    +0.015 C 
ATOM     20  C   UNL     1       5.038 -10.732   9.085  0.00  0.00    +0.016 C 
ENDROOT
BRANCH  18  21
ATOM     21  C   UNL     1      11.645 -12.115   8.858  0.00  0.00    -0.070 C 
ATOM     22  C   UNL     1      12.113 -11.390   9.655  0.00  0.00    +0.007 C 
ENDBRANCH  18  21
BRANCH  18  23
ATOM     23  O   UNL     1      11.960 -13.208   6.768  0.00  0.00    -0.376 OA
ATOM     24  H   UNL     1      12.833 -13.534   7.027  0.00  0.00    +0.211 HD
ENDBRANCH  18  23
BRANCH   1  25
ATOM     25  O   UNL     1       2.983  -8.102   4.404  0.00  0.00    -0.384 OA
BRANCH  25  26
ATOM     26  C   UNL     1       2.299  -7.798   3.187  0.00  0.00    +0.358 C 
BRANCH  26  28
ATOM     27  N   UNL     1       1.451  -5.790   2.018  0.00  0.00    -0.314 N 
ATOM     28  C   UNL     1       2.081  -6.310   3.090  0.00  0.00    +0.253 C 
ATOM     29  O   UNL     1       2.473  -5.581   3.976  0.00  0.00    -0.272 OA
ATOM     30  H   UNL     1       1.138  -6.373   1.309  0.00  0.00    +0.149 HD
BRANCH  27  31
ATOM     31  C   UNL     1       1.240  -4.343   1.924  0.00  0.00    +0.086 C 
BRANCH  31  32
ATOM     32  C   UNL     1       0.508  -4.019   0.620  0.00  0.00    -0.060 C 
BRANCH  32  33
ATOM     33  N   UNL     1       0.196  -2.584   0.578  0.00  0.00    +0.380 N 
ATOM     34  H   UNL     1      -0.323  -2.328   1.404  0.00  0.00    -0.082 HD
BRANCH  33  36
ATOM     35  C   UNL     1       1.127  -0.319   0.608  0.00  0.00    -0.017 C 
ATOM     36  C   UNL     1       1.446  -1.813   0.527  0.00  0.00    -0.082 C 
ENDBRANCH  33  36
BRANCH  33  37
ATOM     37  C   UNL     1      -0.608  -2.292  -0.616  0.00  0.00    -0.082 C 
ATOM     38  C   UNL     1      -1.973  -2.972  -0.490  0.00  0.00    -0.017 C 
ENDBRANCH  33  37
ENDBRANCH  32  33
ENDBRANCH  31  32
ENDBRANCH  27  31
ENDBRANCH  26  28
ENDBRANCH  25  26
ENDBRANCH   1  25
TORSDOF 10
