REMARK  Name = ZINC09573932
REMARK  4 active torsions:
REMARK  status: ('A' for Active; 'I' for Inactive)
REMARK    1  A    between atoms: C_4  and  N_7
REMARK    2  A    between atoms: C_14  and  S_15
REMARK    3  A    between atoms: S_15  and  C_16
REMARK    4  A    between atoms: C_16  and  C_17
REMARK                            x       y       z     vdW  Elec       q    Type
REMARK                         _______ _______ _______ _____ _____    ______ ____
ROOT
ATOM      1  S   UNL     1       2.675   0.820  -0.019  0.00  0.00    -0.077 S 
ENDROOT
BRANCH   1   9
ATOM      2  N   UNL     1       7.550   2.211  -0.058  0.00  0.00    -0.268 N 
ATOM      3  C   UNL     1       7.679   0.749  -0.067  0.00  0.00    +0.135 C 
ATOM      4  C   UNL     1       6.231   0.233  -0.057  0.00  0.00    +0.146 C 
ATOM      5  N   UNL     1       5.400   1.446  -0.036  0.00  0.00    -0.289 N 
ATOM      6  C   UNL     1       6.201   2.546  -0.043  0.00  0.00    +0.225 A 
ATOM      7  N   UNL     1       5.421   3.609  -0.029  0.00  0.00    -0.112 NA
ATOM      8  N   UNL     1       4.091   3.172  -0.019  0.00  0.00    -0.121 NA
ATOM      9  C   UNL     1       4.096   1.862  -0.027  0.00  0.00    +0.193 A 
BRANCH   2  13
ATOM     10  C   UNL     1      10.714   4.919  -0.072  0.00  0.00    +0.000 A 
ATOM     11  C   UNL     1       9.410   5.381  -0.057  0.00  0.00    +0.002 A 
ATOM     12  C   UNL     1       8.359   4.486  -0.052  0.00  0.00    +0.023 A 
ATOM     13  C   UNL     1       8.612   3.120  -0.062  0.00  0.00    +0.037 A 
ATOM     14  C   UNL     1       9.922   2.659  -0.072  0.00  0.00    +0.023 A 
ATOM     15  C   UNL     1      10.969   3.560  -0.083  0.00  0.00    +0.002 A 
ENDBRANCH   2  13
ENDBRANCH   1   9
BRANCH   1  16
ATOM     16  C   UNL     1       1.280   1.980   0.001  0.00  0.00    +0.173 C 
BRANCH  16  17
ATOM     17  C   UNL     1      -0.014   1.208   0.009  0.00  0.00    +0.229 C 
ATOM     18  O   UNL     1       0.002  -0.004   0.002  0.00  0.00    -0.275 OA
ATOM     19  N   UNL     1      -1.191   1.866   0.018  0.00  0.00    -0.264 N 
ATOM     20  C   UNL     1      -2.381   1.157   0.020  0.00  0.00    +0.165 A 
ATOM     21  N   UNL     1      -3.611   1.615   0.028  0.00  0.00    -0.225 NA
ATOM     22  C   UNL     1      -4.688   0.800   0.028  0.00  0.00    +0.080 A 
ATOM     23  C   UNL     1      -6.056   1.160   0.036  0.00  0.00    +0.029 A 
ATOM     24  C   UNL     1      -7.033   0.199   0.034  0.00  0.00    +0.002 A 
ATOM     25  C   UNL     1      -6.721  -1.153   0.024  0.00  0.00    +0.001 A 
ATOM     26  C   UNL     1      -5.394  -1.541   0.017  0.00  0.00    +0.017 A 
ATOM     27  C   UNL     1      -4.408  -0.586   0.018  0.00  0.00    +0.041 A 
ATOM     28  S   UNL     1      -2.632  -0.612   0.003  0.00  0.00    -0.052 S 
ATOM     29  H   UNL     1      -1.204   2.836   0.023  0.00  0.00    +0.157 HD
ENDBRANCH  16  17
ENDBRANCH   1  16
TORSDOF 4
