REMARK  Name = ZINC36485113
REMARK  12 active torsions:
REMARK  status: ('A' for Active; 'I' for Inactive)
REMARK    1  A    between atoms: C_1  and  C_2
REMARK    2  A    between atoms: C_2  and  C_3
REMARK    3  A    between atoms: C_3  and  C_4
REMARK    4  A    between atoms: C_3  and  C_6
REMARK    5  A    between atoms: C_4  and  C_5
REMARK    6  A    between atoms: C_6  and  C_8
REMARK    7  A    between atoms: C_6  and  N_17
REMARK    8  A    between atoms: N_10  and  C_11
REMARK    9  A    between atoms: N_17  and  C_18
REMARK   10  A    between atoms: C_25  and  C_27
REMARK   11  A    between atoms: C_31  and  O_34
REMARK   12  A    between atoms: C_32  and  O_33
REMARK                            x       y       z     vdW  Elec       q    Type
REMARK                         _______ _______ _______ _____ _____    ______ ____
ROOT
ATOM      1  N   UNL     1      -1.475   1.431   1.240  0.00  0.00    -0.255 N 
ATOM      2  C   UNL     1      -1.815   1.966   2.429  0.00  0.00    +0.255 C 
ATOM      3  O   UNL     1      -1.906   1.256   3.412  0.00  0.00    -0.269 OA
ENDROOT
BRANCH   1   4
ATOM      4  C   UNL     1      -1.378   2.247   0.108  0.00  0.00    +0.039 A 
ATOM      5  C   UNL     1      -2.369   2.208  -0.865  0.00  0.00    +0.023 A 
ATOM      6  C   UNL     1      -2.270   3.015  -1.982  0.00  0.00    +0.003 A 
ATOM      7  C   UNL     1      -1.187   3.861  -2.133  0.00  0.00    +0.020 A 
ATOM      8  C   UNL     1      -0.198   3.902  -1.166  0.00  0.00    +0.043 A 
ATOM      9  C   UNL     1      -0.294   3.101  -0.043  0.00  0.00    +0.043 A 
ATOM     10 CL   UNL     1       1.161   4.965  -1.359  0.00  0.00    -0.083 Cl
ENDBRANCH   1   4
BRANCH   2  11
ATOM     11  C   UNL     1      -2.076   3.414   2.539  0.00  0.00    +0.082 A 
ATOM     12  C   UNL     1      -2.834   4.067   1.562  0.00  0.00    +0.017 A 
ATOM     13  C   UNL     1      -3.075   5.419   1.668  0.00  0.00    +0.005 A 
ATOM     14  C   UNL     1      -2.570   6.138   2.739  0.00  0.00    +0.049 A 
ATOM     15  C   UNL     1      -1.817   5.506   3.713  0.00  0.00    +0.159 A 
ATOM     16  C   UNL     1      -1.570   4.139   3.624  0.00  0.00    +0.171 A 
BRANCH  16  17
ATOM     17  O   UNL     1      -0.838   3.514   4.581  0.00  0.00    -0.503 OA
ATOM     18  H   UNL     1       0.113   3.501   4.402  0.00  0.00    +0.292 HD
ENDBRANCH  16  17
BRANCH  15  19
ATOM     19  O   UNL     1      -1.324   6.219   4.761  0.00  0.00    -0.503 OA
ATOM     20  H   UNL     1      -1.917   6.258   5.524  0.00  0.00    +0.292 HD
ENDBRANCH  15  19
ENDBRANCH   2  11
BRANCH   1  21
ATOM     21  C   UNL     1      -1.208  -0.006   1.132  0.00  0.00    +0.170 C 
BRANCH  21  22
ATOM     22  C   UNL     1      -2.282  -0.656   0.299  0.00  0.00    +0.234 C 
ATOM     23  O   UNL     1      -3.245  -0.011  -0.059  0.00  0.00    -0.274 OA
ATOM     24  N   UNL     1      -2.173  -1.954  -0.047  0.00  0.00    -0.311 N 
ATOM     25  H   UNL     1      -1.435  -2.485   0.289  0.00  0.00    +0.149 HD
BRANCH  24  26
ATOM     26  C   UNL     1      -3.170  -2.561  -0.932  0.00  0.00    +0.073 C 
ATOM     27  C   UNL     1      -4.366  -3.035  -0.105  0.00  0.00    +0.022 C 
ATOM     28  C   UNL     1      -5.407  -3.669  -1.029  0.00  0.00    +0.002 C 
ATOM     29  C   UNL     1      -4.784  -4.864  -1.754  0.00  0.00    +0.000 C 
ATOM     30  C   UNL     1      -3.588  -4.391  -2.582  0.00  0.00    +0.002 C 
ATOM     31  C   UNL     1      -2.547  -3.756  -1.657  0.00  0.00    +0.022 C 
ENDBRANCH  24  26
ENDBRANCH  21  22
BRANCH  21  32
ATOM     32  C   UNL     1       0.154  -0.223   0.468  0.00  0.00    +0.018 C 
BRANCH  32  34
ATOM     33  C   UNL     1      -0.776  -0.652  -1.811  0.00  0.00    +0.004 C 
ATOM     34  C   UNL     1       0.103   0.281  -0.976  0.00  0.00    +0.002 C 
ENDBRANCH  32  34
BRANCH  32  35
ATOM     35  C   UNL     1       1.226   0.548   1.240  0.00  0.00    +0.002 C 
ATOM     36  C   UNL     1       1.377  -0.051   2.640  0.00  0.00    +0.004 C 
ENDBRANCH  32  35
ENDBRANCH  21  32
ENDBRANCH   1  21
TORSDOF 10
