REMARK  Name = ZINC09870087
REMARK  8 active torsions:
REMARK  status: ('A' for Active; 'I' for Inactive)
REMARK    1  A    between atoms: C_1  and  C_2
REMARK    2  A    between atoms: C_2  and  O_3
REMARK    3  A    between atoms: O_3  and  C_4
REMARK    4  A    between atoms: C_4  and  C_6
REMARK    5  A    between atoms: C_7  and  C_19
REMARK    6  A    between atoms: C_12  and  C_14
REMARK    7  A    between atoms: C_19  and  N_50
REMARK    8  A    between atoms: C_22  and  C_25
REMARK                            x       y       z     vdW  Elec       q    Type
REMARK                         _______ _______ _______ _____ _____    ______ ____
ROOT
ATOM      1  C   UNL     1       2.388   4.749   1.527  0.00  0.00    +0.077 C 
ATOM      2  C   UNL     1       2.542   6.090   1.547  0.00  0.00    +0.008 C 
ATOM      3  N   UNL     1       2.323   6.841   0.428  0.00  0.00    -0.274 N 
ATOM      4  C   UNL     1       1.947   6.327  -0.750  0.00  0.00    +0.304 C 
ATOM      5  O   UNL     1       1.776   7.077  -1.691  0.00  0.00    -0.252 OA
ATOM      6  N   UNL     1       1.753   5.005  -0.926  0.00  0.00    -0.288 N 
ATOM      7  C   UNL     1       1.964   4.107   0.222  0.00  0.00    +0.150 C 
ATOM      8  H   UNL     1       2.446   7.802   0.489  0.00  0.00    +0.156 HD
ATOM      9  H   UNL     1       1.482   4.654  -1.788  0.00  0.00    +0.151 HD
ENDROOT
BRANCH   7  10
ATOM     10  C   UNL     1       0.679   3.358   0.468  0.00  0.00    +0.015 A 
ATOM     11  C   UNL     1       0.491   2.032   0.674  0.00  0.00    +0.013 A 
ATOM     12  C   UNL     1      -0.793   1.562   0.881  0.00  0.00    +0.008 A 
ATOM     13  C   UNL     1      -1.825   2.441   0.867  0.00  0.00    +0.045 A 
ATOM     14  S   UNL     1      -0.988   3.988   0.564  0.00  0.00    -0.099 S 
ENDBRANCH   7  10
BRANCH   1  15
ATOM     15  C   UNL     1       2.615   3.969   2.686  0.00  0.00    +0.339 C 
ATOM     16  O   UNL     1       2.828   4.514   3.753  0.00  0.00    -0.245 OA
BRANCH  15  17
ATOM     17  O   UNL     1       2.595   2.622   2.607  0.00  0.00    -0.462 OA
BRANCH  17  19
ATOM     18  C   UNL     1       2.770   0.397   3.532  0.00  0.00    +0.048 C 
ATOM     19  C   UNL     1       2.831   1.899   3.816  0.00  0.00    +0.229 C 
ENDBRANCH  17  19
ENDBRANCH  15  17
ENDBRANCH   1  15
BRANCH   2  20
ATOM     20  C   UNL     1       2.962   6.769   2.825  0.00  0.00    -0.026 C 
BRANCH  20  27
ATOM     21  C   UNL     1       0.852   7.931   3.061  0.00  0.00    -0.078 C 
ATOM     22  C   UNL     1      -0.424   8.014   3.902  0.00  0.00    -0.016 C 
ATOM     23  C   UNL     1      -0.065   8.469   5.320  0.00  0.00    -0.018 C 
ATOM     24  C   UNL     1       0.945   7.488   5.922  0.00  0.00    -0.016 C 
ATOM     25  C   UNL     1       2.180   7.419   5.022  0.00  0.00    -0.078 C 
ATOM     26  C   UNL     1      -1.329   8.496   6.183  0.00  0.00    +0.007 C 
ATOM     27  N   UNL     1       1.771   6.953   3.680  0.00  0.00    +0.383 N 
ATOM     28  H   UNL     1       1.286   6.053   3.774  0.00  0.00    -0.081 HD
ENDBRANCH  20  27
ENDBRANCH   2  20
TORSDOF 6
