REMARK  Name = ZINC67582968
REMARK  13 active torsions:
REMARK  status: ('A' for Active; 'I' for Inactive)
REMARK    1  A    between atoms: C_1  and  C_2
REMARK    2  A    between atoms: C_2  and  N_3
REMARK    3  A    between atoms: N_3  and  C_4
REMARK    4  A    between atoms: N_3  and  C_6
REMARK    5  A    between atoms: C_4  and  C_5
REMARK    6  A    between atoms: C_6  and  C_7
REMARK    7  A    between atoms: C_7  and  C_8
REMARK    8  A    between atoms: C_8  and  N_9
REMARK    9  A    between atoms: N_9  and  C_10
REMARK   10  A    between atoms: N_13  and  C_14
REMARK   11  A    between atoms: C_14  and  C_15
REMARK   12  A    between atoms: C_15  and  C_17
REMARK   13  A    between atoms: C_15  and  N_22
REMARK                            x       y       z     vdW  Elec       q    Type
REMARK                         _______ _______ _______ _____ _____    ______ ____
ROOT
ATOM      1  N   UNL     1       3.462  -4.424   3.325  0.00  0.00    -0.289 N 
ATOM      2  C   UNL     1       2.766  -4.880   4.530  0.00  0.00    +0.133 C 
ATOM      3  C   UNL     1       4.803  -4.286   3.333  0.00  0.00    +0.302 C 
ATOM      4  O   UNL     1       5.381  -3.907   2.332  0.00  0.00    -0.253 OA
ATOM      5  N   UNL     1       5.503  -4.567   4.450  0.00  0.00    -0.300 N 
ATOM      6  H   UNL     1       5.041  -4.869   5.248  0.00  0.00    +0.150 HD
ENDROOT
BRANCH   1   7
ATOM      7  C   UNL     1       2.702  -4.118   2.110  0.00  0.00    +0.107 C 
BRANCH   7   8
ATOM      8  C   UNL     1       2.294  -2.643   2.122  0.00  0.00    +0.000 C 
BRANCH   8   9
ATOM      9  C   UNL     1       1.500  -2.324   0.854  0.00  0.00    -0.077 C 
BRANCH   9  10
ATOM     10  N   UNL     1       0.994  -0.947   0.926  0.00  0.00    +0.379 N 
ATOM     11  H   UNL     1       0.463  -0.828   1.776  0.00  0.00    -0.082 HD
BRANCH  10  13
ATOM     12  C   UNL     1       1.607   1.417   1.121  0.00  0.00    -0.017 C 
ATOM     13  C   UNL     1       2.125  -0.009   0.920  0.00  0.00    -0.082 C 
ENDBRANCH  10  13
BRANCH  10  14
ATOM     14  C   UNL     1       0.131  -0.680  -0.232  0.00  0.00    -0.082 C 
ATOM     15  C   UNL     1      -1.125  -1.550  -0.143  0.00  0.00    -0.017 C 
ENDBRANCH  10  14
ENDBRANCH   9  10
ENDBRANCH   8   9
ENDBRANCH   7   8
ENDBRANCH   1   7
BRANCH   5  16
ATOM     16  C   UNL     1       6.960  -4.417   4.459  0.00  0.00    +0.095 C 
BRANCH  16  17
ATOM     17  C   UNL     1       7.516  -4.917   5.794  0.00  0.00    -0.013 C 
BRANCH  17  18
ATOM     18  N   UNL     1       8.959  -4.651   5.854  0.00  0.00    +0.386 N 
ATOM     19  C   UNL     1       9.519  -5.221   7.098  0.00  0.00    -0.078 C 
ATOM     20  C   UNL     1      10.610  -4.213   7.538  0.00  0.00    -0.020 C 
ATOM     21  C   UNL     1       9.960  -2.858   7.154  0.00  0.00    -0.020 C 
ATOM     22  C   UNL     1       9.196  -3.195   5.856  0.00  0.00    -0.078 C 
ATOM     23  H   UNL     1       9.415  -5.067   5.056  0.00  0.00    -0.081 HD
ENDBRANCH  17  18
BRANCH  17  24
ATOM     24  C   UNL     1       7.273  -6.399   5.916  0.00  0.00    -0.022 A 
ATOM     25  C   UNL     1       6.298  -7.051   6.596  0.00  0.00    +0.009 A 
ATOM     26  C   UNL     1       6.269  -8.433   6.566  0.00  0.00    +0.008 A 
ATOM     27  C   UNL     1       7.217  -9.095   5.858  0.00  0.00    +0.045 A 
ATOM     28  S   UNL     1       8.190  -7.752   5.197  0.00  0.00    -0.103 S 
ENDBRANCH  17  24
ENDBRANCH  16  17
ENDBRANCH   5  16
TORSDOF 10
