REMARK  Name = ZINC09794482
REMARK  8 active torsions:
REMARK  status: ('A' for Active; 'I' for Inactive)
REMARK    1  A    between atoms: C_1  and  C_2
REMARK    2  A    between atoms: C_3  and  C_29
REMARK    3  A    between atoms: N_4  and  C_24
REMARK    4  A    between atoms: C_5  and  S_7
REMARK    5  A    between atoms: S_7  and  C_8
REMARK    6  A    between atoms: C_8  and  C_9
REMARK    7  A    between atoms: N_11  and  C_12
REMARK    8  A    between atoms: C_13  and  C_21
REMARK                            x       y       z     vdW  Elec       q    Type
REMARK                         _______ _______ _______ _____ _____    ______ ____
ROOT
ATOM      1  C   UNL     1      -6.332   2.703   2.015  0.00  0.00    +0.228 C 
ATOM      2  O   UNL     1      -6.651   3.087   3.120  0.00  0.00    -0.275 OA
ATOM      3  N   UNL     1      -7.268   2.563   1.055  0.00  0.00    -0.279 N 
ATOM      4  H   UNL     1      -7.013   2.256   0.171  0.00  0.00    +0.155 HD
ENDROOT
BRANCH   3   5
ATOM      5  C   UNL     1      -8.594   2.859   1.331  0.00  0.00    +0.084 A 
ATOM      6  C   UNL     1      -9.689   2.784   0.481  0.00  0.00    +0.068 A 
ATOM      7  C   UNL     1     -10.986   3.149   1.024  0.00  0.00    -0.023 A 
ATOM      8  C   UNL     1     -10.980   3.539   2.317  0.00  0.00    -0.004 A 
ATOM      9  S   UNL     1      -9.286   3.418   2.817  0.00  0.00    -0.077 S 
ATOM     10  C   UNL     1     -12.156   3.975   3.135  0.00  0.00    +0.043 C 
ATOM     11  C   UNL     1     -13.323   4.274   2.183  0.00  0.00    +0.005 C 
ATOM     12  C   UNL     1     -13.462   3.113   1.193  0.00  0.00    +0.005 C 
ATOM     13  C   UNL     1     -12.281   3.114   0.222  0.00  0.00    +0.037 C 
BRANCH   6  14
ATOM     14  C   UNL     1      -9.542   2.349  -0.911  0.00  0.00    +0.244 C 
ATOM     15  O   UNL     1      -9.643   1.169  -1.194  0.00  0.00    -0.270 OA
ATOM     16  N   UNL     1      -9.296   3.255  -1.878  0.00  0.00    -0.325 N 
ATOM     17  H   UNL     1      -9.216   4.195  -1.653  0.00  0.00    +0.145 HD
ATOM     18  H   UNL     1      -9.199   2.967  -2.800  0.00  0.00    +0.145 HD
ENDBRANCH   6  14
ENDBRANCH   3   5
BRANCH   1  19
ATOM     19  C   UNL     1      -4.891   2.381   1.715  0.00  0.00    +0.173 C 
BRANCH  19  20
ATOM     20  S   UNL     1      -3.889   2.667   3.195  0.00  0.00    -0.078 S 
BRANCH  20  25
ATOM     21  C   UNL     1      -0.013   1.086   0.008  0.00  0.00    +0.067 C 
ATOM     22  C   UNL     1      -0.718   1.572   1.248  0.00  0.00    +0.060 A 
ATOM     23  C   UNL     1      -0.138   1.835   2.431  0.00  0.00    +0.039 A 
ATOM     24  N   UNL     1      -1.135   2.252   3.284  0.00  0.00    -0.320 N 
ATOM     25  C   UNL     1      -2.299   2.226   2.578  0.00  0.00    +0.170 A 
ATOM     26  N   UNL     1      -2.034   1.821   1.358  0.00  0.00    -0.227 NA
ATOM     27  C   UNL     1       1.327   1.701   2.761  0.00  0.00    +0.065 C 
BRANCH  24  28
ATOM     28  C   UNL     1      -0.974   2.648   4.685  0.00  0.00    +0.089 C 
ATOM     29  C   UNL     1      -1.859   1.765   5.588  0.00  0.00    +0.025 C 
ATOM     30  C   UNL     1      -2.368   2.735   6.685  0.00  0.00    +0.002 C 
ATOM     31  C   UNL     1      -2.612   4.046   5.897  0.00  0.00    +0.002 C 
ATOM     32  C   UNL     1      -1.452   4.098   4.881  0.00  0.00    +0.025 C 
ENDBRANCH  24  28
ENDBRANCH  20  25
ENDBRANCH  19  20
ENDBRANCH   1  19
TORSDOF 6
