REMARK  Name = ZINC33286158
REMARK  6 active torsions:
REMARK  status: ('A' for Active; 'I' for Inactive)
REMARK    1  A    between atoms: C_1  and  O_2
REMARK    2  A    between atoms: O_2  and  C_3
REMARK    3  A    between atoms: C_5  and  C_18
REMARK    4  A    between atoms: C_8  and  O_9
REMARK    5  A    between atoms: O_9  and  C_10
REMARK    6  A    between atoms: C_10  and  C_11
REMARK                            x       y       z     vdW  Elec       q    Type
REMARK                         _______ _______ _______ _____ _____    ______ ____
ROOT
ATOM      1  C   UNL     1       0.482  -0.727  -1.170  0.00  0.00    +0.162 A 
ATOM      2  C   UNL     1       0.980   0.061  -2.188  0.00  0.00    +0.057 A 
ATOM      3  C   UNL     1       1.860  -0.491  -3.128  0.00  0.00    -0.020 A 
ATOM      4  C   UNL     1       2.228  -1.838  -3.030  0.00  0.00    +0.012 A 
ATOM      5  C   UNL     1       1.726  -2.616  -2.010  0.00  0.00    +0.050 A 
ATOM      6  C   UNL     1       0.858  -2.067  -1.075  0.00  0.00    +0.162 A 
ENDROOT
BRANCH   3   7
ATOM      7  C   UNL     1       2.393   0.342  -4.214  0.00  0.00    +0.028 C 
ATOM      8  C   UNL     1       2.533  -0.177  -5.460  0.00  0.00    +0.078 C 
ATOM      9  C   UNL     1       2.064  -1.470  -5.994  0.00  0.00    +0.256 C 
ATOM     10  O   UNL     1       1.453  -2.261  -5.298  0.00  0.00    -0.269 OA
ATOM     11  N   UNL     1       2.337  -1.731  -7.261  0.00  0.00    -0.261 N 
ATOM     12  C   UNL     1       3.031  -0.821  -8.032  0.00  0.00    +0.158 C 
ATOM     13  N   UNL     1       3.380  -0.918  -9.285  0.00  0.00    -0.279 NA
ATOM     14  S   UNL     1       3.327   0.526  -6.898  0.00  0.00    -0.049 S 
ATOM     15  H   UNL     1       2.047  -2.570  -7.652  0.00  0.00    +0.157 HD
ATOM     16  H   UNL     1       3.871  -0.197  -9.709  0.00  0.00    +0.189 HD
ENDBRANCH   3   7
BRANCH   1  18
ATOM     17  C   UNL     1      -0.715   1.183  -0.412  0.00  0.00    +0.277 C 
ATOM     18  O   UNL     1      -0.372  -0.195  -0.255  0.00  0.00    -0.491 OA
ENDBRANCH   1  18
BRANCH   6  19
ATOM     19  O   UNL     1       0.370  -2.838  -0.069  0.00  0.00    -0.484 OA
BRANCH  19  20
ATOM     20  C   UNL     1       0.796  -4.201  -0.031  0.00  0.00    +0.264 C 
BRANCH  20  21
ATOM     21  C   UNL     1       0.157  -4.895   1.144  0.00  0.00    -0.010 A 
ATOM     22  C   UNL     1       0.792  -4.899   2.372  0.00  0.00    +0.008 A 
ATOM     23  C   UNL     1       0.206  -5.535   3.451  0.00  0.00    +0.020 A 
ATOM     24  C   UNL     1      -1.015  -6.168   3.301  0.00  0.00    +0.041 A 
ATOM     25  C   UNL     1      -1.649  -6.164   2.072  0.00  0.00    +0.020 A 
ATOM     26  C   UNL     1      -1.065  -5.522   0.995  0.00  0.00    +0.008 A 
ATOM     27 CL   UNL     1      -1.750  -6.967   4.655  0.00  0.00    -0.084 Cl
ENDBRANCH  20  21
ENDBRANCH  19  20
ENDBRANCH   6  19
TORSDOF 5
