REMARK  Name = ZINC22187297
REMARK  11 active torsions:
REMARK  status: ('A' for Active; 'I' for Inactive)
REMARK    1  A    between atoms: C_1  and  C_2
REMARK    2  A    between atoms: C_3  and  C_33
REMARK    3  A    between atoms: N_4  and  C_26
REMARK    4  A    between atoms: C_5  and  N_9
REMARK    5  A    between atoms: C_6  and  C_7
REMARK    6  A    between atoms: C_10  and  C_12
REMARK    7  A    between atoms: C_12  and  S_13
REMARK    8  A    between atoms: S_13  and  C_14
REMARK    9  A    between atoms: C_17  and  C_20
REMARK   10  A    between atoms: N_18  and  N_19
REMARK   11  A    between atoms: C_24  and  C_25
REMARK                            x       y       z     vdW  Elec       q    Type
REMARK                         _______ _______ _______ _____ _____    ______ ____
ROOT
ATOM      1  N   UNL     1      -1.629  -1.914  -0.090  0.00  0.00    -0.270 N 
ATOM      2  C   UNL     1      -1.193  -0.841   0.599  0.00  0.00    +0.229 C 
ATOM      3  O   UNL     1      -1.963  -0.212   1.293  0.00  0.00    -0.275 OA
ATOM      4  H   UNL     1      -0.953  -2.434  -0.785  0.00  0.00    +0.156 HD
ENDROOT
BRANCH   1   9
ATOM      5  C   UNL     1      -5.685  -4.622   1.238  0.00  0.00    +0.047 C 
ATOM      6  C   UNL     1      -4.783  -3.562   0.660  0.00  0.00    -0.010 A 
ATOM      7  C   UNL     1      -5.163  -2.480  -0.040  0.00  0.00    +0.027 A 
ATOM      8  N   UNL     1      -4.054  -1.756  -0.393  0.00  0.00    -0.300 N 
ATOM      9  C   UNL     1      -2.931  -2.363   0.077  0.00  0.00    +0.128 A 
ATOM     10  C   UNL     1      -3.318  -3.514   0.749  0.00  0.00    +0.095 A 
ATOM     11  C   UNL     1      -6.585  -2.120  -0.384  0.00  0.00    +0.064 C 
BRANCH   8  12
ATOM     12  C   UNL     1      -4.074  -0.563  -1.130  0.00  0.00    +0.048 A 
ATOM     13  C   UNL     1      -4.632   0.584  -0.581  0.00  0.00    +0.029 A 
ATOM     14  C   UNL     1      -4.647   1.758  -1.307  0.00  0.00    +0.040 A 
ATOM     15  C   UNL     1      -4.115   1.790  -2.586  0.00  0.00    +0.124 A 
ATOM     16  C   UNL     1      -3.562   0.646  -3.136  0.00  0.00    +0.040 A 
ATOM     17  C   UNL     1      -3.541  -0.529  -2.412  0.00  0.00    +0.029 A 
ATOM     18  F   UNL     1      -4.136   2.939  -3.296  0.00  0.00    -0.205 F 
ENDBRANCH   8  12
BRANCH  10  19
ATOM     19  C   UNL     1      -2.463  -4.462   1.399  0.00  0.00    +0.103 C 
ATOM     20  N   UNL     1      -1.785  -5.213   1.914  0.00  0.00    -0.191 NA
ENDBRANCH  10  19
ENDBRANCH   1   9
BRANCH   2  21
ATOM     21  C   UNL     1       0.253  -0.423   0.507  0.00  0.00    +0.173 C 
BRANCH  21  22
ATOM     22  S   UNL     1       0.524   1.040   1.538  0.00  0.00    -0.075 S 
BRANCH  22  23
ATOM     23  C   UNL     1       2.243   1.301   1.250  0.00  0.00    +0.209 A 
ATOM     24  N   UNL     1       3.023   0.577   0.481  0.00  0.00    -0.121 NA
ATOM     25  N   UNL     1       4.219   1.047   0.499  0.00  0.00    -0.127 NA
ATOM     26  C   UNL     1       4.277   2.100   1.281  0.00  0.00    +0.185 A 
ATOM     27  N   UNL     1       3.012   2.299   1.782  0.00  0.00    -0.224 N 
BRANCH  26  28
ATOM     28  C   UNL     1       5.474   2.920   1.564  0.00  0.00    +0.061 A 
ATOM     29  C   UNL     1       5.555   4.100   2.435  0.00  0.00    +0.053 A 
ATOM     30  C   UNL     1       6.833   4.510   2.386  0.00  0.00    +0.196 A 
ATOM     31  O   UNL     1       7.524   3.695   1.574  0.00  0.00    -0.467 OA
ATOM     32  C   UNL     1       6.731   2.735   1.076  0.00  0.00    +0.112 A 
ATOM     33  C   UNL     1       7.158   1.639   0.134  0.00  0.00    +0.087 C 
ENDBRANCH  26  28
BRANCH  27  34
ATOM     34  N   UNL     1       2.608   3.287   2.635  0.00  0.00    -0.295 N 
ATOM     35  H   UNL     1       3.331   4.035   2.992  0.00  0.00    +0.163 HD
ATOM     36  H   UNL     1       1.560   3.334   2.965  0.00  0.00    +0.163 HD
ENDBRANCH  27  34
ENDBRANCH  22  23
ENDBRANCH  21  22
ENDBRANCH   2  21
TORSDOF 8
