REMARK  Name = ZINC05016938
REMARK  6 active torsions:
REMARK  status: ('A' for Active; 'I' for Inactive)
REMARK    1  A    between atoms: C_1  and  O_2
REMARK    2  A    between atoms: O_2  and  C_3
REMARK    3  A    between atoms: C_6  and  C_9
REMARK    4  A    between atoms: N_11  and  S_15
REMARK    5  A    between atoms: S_15  and  C_18
REMARK    6  A    between atoms: C_22  and  N_24
REMARK                            x       y       z     vdW  Elec       q    Type
REMARK                         _______ _______ _______ _____ _____    ______ ____
ROOT
ATOM      1  C   UNL     1      -2.705  -0.611   2.338  0.00  0.00    +0.167 C 
ATOM      2  N   UNL     1      -3.146   0.590   1.602  0.00  0.00    -0.159 NA
ATOM      3  C   UNL     1      -3.973   1.533   2.350  0.00  0.00    +0.122 C 
ATOM      4  C   UNL     1      -3.588   1.532   3.858  0.00  0.00    +0.088 C 
ATOM      5  S   UNL     1      -3.282  -0.281   4.058  0.00  0.00    -0.134 S 
ENDROOT
BRANCH   1   9
ATOM      6  C   UNL     1      -4.568  -4.118   0.760  0.00  0.00    +0.120 A 
ATOM      7  C   UNL     1      -3.306  -4.198   1.331  0.00  0.00    +0.046 A 
ATOM      8  C   UNL     1      -2.706  -3.063   1.841  0.00  0.00    +0.009 A 
ATOM      9  C   UNL     1      -3.362  -1.847   1.782  0.00  0.00    -0.019 A 
ATOM     10  C   UNL     1      -4.622  -1.766   1.218  0.00  0.00    +0.009 A 
ATOM     11  C   UNL     1      -5.224  -2.897   0.702  0.00  0.00    +0.046 A 
BRANCH   6  13
ATOM     12  C   UNL     1      -6.460  -5.076  -0.315  0.00  0.00    +0.277 C 
ATOM     13  O   UNL     1      -5.160  -5.233   0.258  0.00  0.00    -0.495 OA
ENDBRANCH   6  13
ENDBRANCH   1   9
BRANCH   2  14
ATOM     14  S   UNL     1      -2.733   0.849   0.020  0.00  0.00    +0.062 S 
ATOM     15  O   UNL     1      -3.721   1.714  -0.522  0.00  0.00    -0.153 OA
ATOM     16  O   UNL     1      -2.447  -0.426  -0.539  0.00  0.00    -0.153 OA
BRANCH  14  17
ATOM     17  C   UNL     1      -1.219   1.750   0.017  0.00  0.00    +0.108 A 
ATOM     18  C   UNL     1      -1.238   3.133   0.029  0.00  0.00    +0.028 A 
ATOM     19  C   UNL     1      -0.050   3.840   0.023  0.00  0.00    +0.004 A 
ATOM     20  C   UNL     1       1.157   3.165   0.008  0.00  0.00    +0.033 A 
ATOM     21  C   UNL     1       1.175   1.783   0.000  0.00  0.00    +0.128 A 
ATOM     22  C   UNL     1      -0.013   1.076   0.008  0.00  0.00    +0.061 A 
BRANCH  21  23
ATOM     23  N   UNL     1       2.467   1.061  -0.015  0.00  0.00    +0.056 N 
ATOM     24  O   UNL     1       2.483  -0.157  -0.022  0.00  0.00    -0.126 OA
ATOM     25  O   UNL     1       3.513   1.684  -0.022  0.00  0.00    -0.126 OA
ENDBRANCH  21  23
ENDBRANCH  14  17
ENDBRANCH   2  14
TORSDOF 5
