REMARK  Name = ZINC65461538
REMARK  11 active torsions:
REMARK  status: ('A' for Active; 'I' for Inactive)
REMARK    1  A    between atoms: C_1  and  C_2
REMARK    2  A    between atoms: C_4  and  C_12
REMARK    3  A    between atoms: C_5  and  C_11
REMARK    4  A    between atoms: N_7  and  C_8
REMARK    5  A    between atoms: C_8  and  C_9
REMARK    6  A    between atoms: C_8  and  C_10
REMARK    7  A    between atoms: C_12  and  N_13
REMARK    8  A    between atoms: N_13  and  C_14
REMARK    9  A    between atoms: C_15  and  C_17
REMARK   10  A    between atoms: C_17  and  C_18
REMARK   11  A    between atoms: C_18  and  C_19
REMARK                            x       y       z     vdW  Elec       q    Type
REMARK                         _______ _______ _______ _____ _____    ______ ____
ROOT
ATOM      1  N   UNL     1      -1.082  -1.400  -2.797  0.00  0.00    -0.300 N 
ATOM      2  C   UNL     1      -2.392  -0.806  -2.523  0.00  0.00    +0.132 C 
ATOM      3  C   UNL     1      -0.992  -2.693  -3.168  0.00  0.00    +0.216 C 
ATOM      4  O   UNL     1       0.097  -3.212  -3.301  0.00  0.00    -0.276 OA
ENDROOT
BRANCH   1   5
ATOM      5  C   UNL     1       0.132  -0.590  -2.667  0.00  0.00    +0.141 C 
BRANCH   5   8
ATOM      6  C   UNL     1       0.135   1.446  -0.138  0.00  0.00    +0.031 C 
ATOM      7  C   UNL     1       0.109  -0.079  -0.018  0.00  0.00    +0.102 C 
ATOM      8  C   UNL     1       0.675  -0.718  -1.268  0.00  0.00    -0.016 C 
ATOM      9  C   UNL     1       1.733  -1.410  -0.896  0.00  0.00    +0.018 C 
ATOM     10  N   UNL     1       1.954  -1.316   0.463  0.00  0.00    -0.281 N 
ATOM     11  N   UNL     1       1.010  -0.527   1.063  0.00  0.00    -0.220 NA
ATOM     12  C   UNL     1       2.596  -2.207  -1.840  0.00  0.00    +0.062 C 
ATOM     13  H   UNL     1       2.683  -1.752   0.932  0.00  0.00    +0.166 HD
BRANCH  11  14
ATOM     14  C   UNL     1       1.632   0.619   1.739  0.00  0.00    +0.070 C 
ATOM     15  C   UNL     1       0.785   1.019   2.949  0.00  0.00    +0.025 C 
ATOM     16  C   UNL     1       3.038   0.235   2.206  0.00  0.00    +0.025 C 
ENDBRANCH  11  14
ENDBRANCH   5   8
ENDBRANCH   1   5
BRANCH   3  17
ATOM     17  C   UNL     1      -2.244  -3.494  -3.417  0.00  0.00    +0.100 C 
BRANCH  17  18
ATOM     18  C   UNL     1      -1.864  -4.920  -3.823  0.00  0.00    +0.056 C 
BRANCH  18  19
ATOM     19  C   UNL     1      -3.135  -5.733  -4.076  0.00  0.00    +0.174 C 
ATOM     20  N   UNL     1      -3.930  -5.824  -2.845  0.00  0.00    -0.363 N 
ATOM     21  C   UNL     1      -4.032  -7.084  -2.537  0.00  0.00    +0.060 A 
ATOM     22  C   UNL     1      -4.695  -7.791  -1.432  0.00  0.00    +0.030 A 
ATOM     23  C   UNL     1      -4.631  -9.135  -1.369  0.00  0.00    +0.040 A 
ATOM     24  C   UNL     1      -3.946  -9.908  -2.328  0.00  0.00    +0.125 A 
ATOM     25  C   UNL     1      -3.304  -9.357  -3.381  0.00  0.00    +0.065 A 
ATOM     26  C   UNL     1      -3.308  -7.899  -3.550  0.00  0.00    +0.063 A 
ATOM     27  N   UNL     1      -2.787  -7.110  -4.448  0.00  0.00    -0.363 N 
ATOM     28  F   UNL     1      -3.932 -11.252  -2.189  0.00  0.00    -0.205 F 
ATOM     29  H   UNL     1      -4.309  -5.080  -2.351  0.00  0.00    +0.162 HD
ATOM     30  H   UNL     1      -2.264  -7.382  -5.219  0.00  0.00    +0.162 HD
ENDBRANCH  18  19
ENDBRANCH  17  18
ENDBRANCH   3  17
TORSDOF 6
