REMARK  Name = ZINC24786301
REMARK  6 active torsions:
REMARK  status: ('A' for Active; 'I' for Inactive)
REMARK    1  A    between atoms: C_1  and  C_2
REMARK    2  A    between atoms: N_4  and  C_5
REMARK    3  A    between atoms: C_5  and  C_6
REMARK    4  A    between atoms: C_9  and  C_11
REMARK    5  A    between atoms: C_17  and  C_19
REMARK    6  A    between atoms: C_19  and  N_20
REMARK                            x       y       z     vdW  Elec       q    Type
REMARK                         _______ _______ _______ _____ _____    ______ ____
ROOT
ATOM      1  C   UNL     1      -4.349   6.992  -4.651  0.00  0.00    +0.115 A 
ATOM      2  C   UNL     1      -3.661   6.225  -5.553  0.00  0.00    +0.080 A 
ATOM      3  S   UNL     1      -2.710   5.187  -4.451  0.00  0.00    -0.060 S 
ATOM      4  C   UNL     1      -3.324   5.865  -2.916  0.00  0.00    +0.165 A 
ATOM      5  N   UNL     1      -4.160   6.789  -3.349  0.00  0.00    -0.221 NA
ATOM      6  N   UNL     1      -3.002   5.515  -1.610  0.00  0.00    -0.263 N 
ATOM      7  C   UNL     1      -2.112   4.530  -1.377  0.00  0.00    +0.237 C 
ATOM      8  O   UNL     1      -1.593   3.949  -2.306  0.00  0.00    -0.274 OA
ATOM      9  H   UNL     1      -3.473   6.042  -0.768  0.00  0.00    +0.157 HD
ENDROOT
BRANCH   1  13
ATOM     10  C   UNL     1      -6.465   9.328  -6.446  0.00  0.00    +0.123 A 
ATOM     11  C   UNL     1      -6.778   9.682  -5.185  0.00  0.00    +0.047 A 
ATOM     12  C   UNL     1      -6.027   8.854  -4.325  0.00  0.00    +0.052 A 
ATOM     13  C   UNL     1      -5.290   8.032  -5.118  0.00  0.00    +0.154 A 
ATOM     14  O   UNL     1      -5.561   8.334  -6.402  0.00  0.00    -0.457 OA
BRANCH  10  15
ATOM     15  C   UNL     1      -7.029   9.947  -7.698  0.00  0.00    +0.178 C 
BRANCH  15  19
ATOM     16  C   UNL     1      -5.633  12.940  -9.634  0.00  0.00    +0.109 C 
ATOM     17  C   UNL     1      -6.500  11.782  -9.211  0.00  0.00    +0.210 C 
ATOM     18  O   UNL     1      -7.480  11.488  -9.863  0.00  0.00    -0.276 OA
ATOM     19  N   UNL     1      -6.186  11.072  -8.109  0.00  0.00    -0.308 N 
ATOM     20  H   UNL     1      -5.298  11.339  -7.518  0.00  0.00    +0.149 HD
ENDBRANCH  15  19
ENDBRANCH  10  15
ENDBRANCH   1  13
BRANCH   7  21
ATOM     21  C   UNL     1      -1.763   4.150   0.039  0.00  0.00    +0.214 C 
BRANCH  21  22
ATOM     22  N   UNL     1      -0.782   3.062   0.025  0.00  0.00    -0.215 N 
ATOM     23  C   UNL     1       0.556   3.246   0.014  0.00  0.00    +0.251 C 
ATOM     24  O   UNL     1       1.154   4.301   0.014  0.00  0.00    -0.272 OA
ATOM     25  C   UNL     1       1.147   1.860   0.001  0.00  0.00    +0.138 C 
ATOM     26  C   UNL     1       2.019   1.640  -1.242  0.00  0.00    +0.045 C 
ATOM     27  C   UNL     1       3.435   1.949  -0.705  0.00  0.00    +0.038 C 
ATOM     28  C   UNL     1       3.364   1.676   0.783  0.00  0.00    -0.042 A 
ATOM     29  C   UNL     1       2.041   1.627   1.189  0.00  0.00    -0.012 A 
ATOM     30  C   UNL     1       1.740   1.390   2.519  0.00  0.00    +0.006 A 
ATOM     31  C   UNL     1       2.751   1.202   3.441  0.00  0.00    +0.000 A 
ATOM     32  C   UNL     1       4.072   1.251   3.035  0.00  0.00    +0.000 A 
ATOM     33  C   UNL     1       4.376   1.488   1.708  0.00  0.00    +0.004 A 
ATOM     34  N   UNL     1      -0.011   0.966   0.007  0.00  0.00    -0.281 N 
ATOM     35  C   UNL     1      -1.100   1.761   0.016  0.00  0.00    +0.310 C 
ATOM     36  O   UNL     1      -2.242   1.344   0.019  0.00  0.00    -0.252 OA
ATOM     37  H   UNL     1       0.136  -0.124   0.005  0.00  0.00    +0.152 HD
ENDBRANCH  21  22
ENDBRANCH   7  21
TORSDOF 5
