REMARK  Name = ZINC01791586
REMARK  17 active torsions:
REMARK  status: ('A' for Active; 'I' for Inactive)
REMARK    1  A    between atoms: C_1  and  C_2
REMARK    2  A    between atoms: C_4  and  C_35
REMARK    3  A    between atoms: C_5  and  C_34
REMARK    4  A    between atoms: C_6  and  O_8
REMARK    5  A    between atoms: O_8  and  C_9
REMARK    6  A    between atoms: C_15  and  O_33
REMARK    7  A    between atoms: C_16  and  C_24
REMARK    8  A    between atoms: C_19  and  C_20
REMARK    9  A    between atoms: C_24  and  N_70
REMARK   10  A    between atoms: C_25  and  C_26
REMARK   11  A    between atoms: C_25  and  N_70
REMARK   12  A    between atoms: C_26  and  C_27
REMARK   13  A    between atoms: C_26  and  C_28
REMARK   14  A    between atoms: C_29  and  C_30
REMARK   15  A    between atoms: C_29  and  N_70
REMARK   16  A    between atoms: C_30  and  C_31
REMARK   17  A    between atoms: C_30  and  C_32
REMARK                            x       y       z     vdW  Elec       q    Type
REMARK                         _______ _______ _______ _____ _____    ______ ____
ROOT
ATOM      1  C   UNL     1       4.617  -0.670   1.299  0.00  0.00    +0.222 A 
ATOM      2  C   UNL     1       5.002  -0.410  -0.047  0.00  0.00    +0.235 A 
ATOM      3  O   UNL     1       4.439  -0.950  -0.985  0.00  0.00    -0.283 OA
ATOM      4  C   UNL     1       6.105   0.543  -0.260  0.00  0.00    +0.068 A 
ATOM      5  C   UNL     1       6.550   0.865  -1.543  0.00  0.00    +0.019 A 
ATOM      6  C   UNL     1       7.579   1.749  -1.701  0.00  0.00    +0.046 A 
ATOM      7  C   UNL     1       8.186   2.329  -0.589  0.00  0.00    +0.122 A 
ATOM      8  C   UNL     1       7.756   2.019   0.690  0.00  0.00    +0.020 A 
ATOM      9  C   UNL     1       6.711   1.123   0.868  0.00  0.00    +0.144 A 
ATOM     10  O   UNL     1       6.273   0.804   2.102  0.00  0.00    -0.447 OA
ATOM     11  C   UNL     1       5.268  -0.057   2.307  0.00  0.00    +0.254 A 
ENDROOT
BRANCH  11  12
ATOM     12  C   UNL     1       4.847  -0.352   3.724  0.00  0.00    +0.454 C 
ATOM     13  F   UNL     1       5.580  -1.440   4.211  0.00  0.00    -0.163 F 
ATOM     14  F   UNL     1       5.088   0.769   4.525  0.00  0.00    -0.163 F 
ATOM     15  F   UNL     1       3.482  -0.659   3.750  0.00  0.00    -0.163 F 
ENDBRANCH  11  12
BRANCH   7  16
ATOM     16  O   UNL     1       9.208   3.206  -0.761  0.00  0.00    -0.506 OA
ATOM     17  H   UNL     1      10.082   2.793  -0.778  0.00  0.00    +0.292 HD
ENDBRANCH   7  16
BRANCH   1  18
ATOM     18  O   UNL     1       3.601  -1.537   1.566  0.00  0.00    -0.448 OA
BRANCH  18  24
ATOM     19  C   UNL     1       0.593   2.300   1.340  0.00  0.00    +0.044 C 
ATOM     20  C   UNL     1       0.835   0.827   1.543  0.00  0.00    -0.047 A 
ATOM     21  C   UNL     1      -0.226  -0.018   1.812  0.00  0.00    +0.007 A 
ATOM     22  C   UNL     1      -0.007  -1.370   1.999  0.00  0.00    -0.044 A 
ATOM     23  C   UNL     1       1.274  -1.881   1.917  0.00  0.00    -0.005 A 
ATOM     24  C   UNL     1       2.341  -1.036   1.647  0.00  0.00    +0.132 A 
ATOM     25  C   UNL     1       2.118   0.321   1.460  0.00  0.00    +0.050 A 
ATOM     26  C   UNL     1       1.512  -3.355   2.120  0.00  0.00    +0.048 C 
ATOM     27  C   UNL     1      -1.167  -2.287   2.292  0.00  0.00    +0.044 C 
ENDBRANCH  18  24
ENDBRANCH   1  18
BRANCH   8  28
ATOM     28  C   UNL     1       8.421   2.653   1.886  0.00  0.00    -0.036 C 
BRANCH  28  29
ATOM     29  N   UNL     1       9.561   1.808   2.302  0.00  0.00    +0.383 N 
ATOM     30  H   UNL     1      10.193   1.684   1.503  0.00  0.00    -0.081 HD
BRANCH  29  31
ATOM     31  C   UNL     1      10.299   2.463   3.402  0.00  0.00    -0.075 C 
BRANCH  31  32
ATOM     32  C   UNL     1      11.306   3.443   2.798  0.00  0.00    -0.034 C 
ATOM     33  C   UNL     1      10.557   4.586   2.109  0.00  0.00    +0.005 C 
ATOM     34  C   UNL     1      12.194   4.012   3.908  0.00  0.00    +0.005 C 
ENDBRANCH  31  32
ENDBRANCH  29  31
BRANCH  29  35
ATOM     35  C   UNL     1       9.074   0.483   2.740  0.00  0.00    -0.075 C 
BRANCH  35  36
ATOM     36  C   UNL     1      10.270  -0.462   2.873  0.00  0.00    -0.034 C 
ATOM     37  C   UNL     1       9.796  -1.812   3.414  0.00  0.00    +0.005 C 
ATOM     38  C   UNL     1      10.918  -0.661   1.501  0.00  0.00    +0.005 C 
ENDBRANCH  35  36
ENDBRANCH  29  35
ENDBRANCH  28  29
ENDBRANCH   8  28
TORSDOF 10
