REMARK  Name = ZINC04791733
REMARK  6 active torsions:
REMARK  status: ('A' for Active; 'I' for Inactive)
REMARK    1  A    between atoms: C_1  and  C_2
REMARK    2  A    between atoms: C_2  and  C_3
REMARK    3  A    between atoms: C_3  and  C_26
REMARK    4  A    between atoms: N_12  and  C_18
REMARK    5  A    between atoms: N_15  and  C_16
REMARK    6  A    between atoms: C_16  and  C_17
REMARK                            x       y       z     vdW  Elec       q    Type
REMARK                         _______ _______ _______ _____ _____    ______ ____
ROOT
ATOM      1  C   UNL     1      -2.542   0.815  -1.534  0.00  0.00    +0.071 C 
ATOM      2  C   UNL     1      -1.554   0.310  -2.590  0.00  0.00    +0.071 C 
ATOM      3  C   UNL     1      -1.581   1.281  -3.766  0.00  0.00    -0.018 A 
ATOM      4  C   UNL     1      -2.103   2.520  -3.599  0.00  0.00    +0.021 A 
ATOM      5  S   UNL     1      -1.940   3.302  -5.180  0.00  0.00    -0.073 S 
ATOM      6  C   UNL     1      -1.196   2.018  -6.038  0.00  0.00    +0.097 A 
ATOM      7  C   UNL     1      -1.078   0.985  -5.093  0.00  0.00    +0.074 A 
ATOM      8  C   UNL     1      -0.458  -0.279  -5.552  0.00  0.00    +0.270 A 
ATOM      9  O   UNL     1      -0.311  -1.232  -4.809  0.00  0.00    -0.266 OA
ATOM     10  N   UNL     1      -0.065  -0.313  -6.847  0.00  0.00    -0.228 N 
ATOM     11  C   UNL     1      -0.211   0.716  -7.693  0.00  0.00    +0.337 A 
ATOM     12  O   UNL     1       0.176   0.584  -8.838  0.00  0.00    -0.246 OA
ATOM     13  N   UNL     1      -0.770   1.897  -7.332  0.00  0.00    -0.287 N 
ATOM     14  C   UNL     1      -2.682   3.071  -2.334  0.00  0.00    +0.203 C 
ATOM     15  O   UNL     1      -2.304   2.198  -1.258  0.00  0.00    -0.368 OA
ATOM     16  C   UNL     1      -3.971   0.643  -2.053  0.00  0.00    +0.042 C 
ENDROOT
BRANCH  10  17
ATOM     17  C   UNL     1       0.527  -1.488  -7.329  0.00  0.00    +0.054 A 
ATOM     18  C   UNL     1      -0.261  -2.487  -7.883  0.00  0.00    +0.026 A 
ATOM     19  C   UNL     1       0.326  -3.642  -8.362  0.00  0.00    +0.002 A 
ATOM     20  C   UNL     1       1.696  -3.808  -8.280  0.00  0.00    +0.000 A 
ATOM     21  C   UNL     1       2.484  -2.817  -7.723  0.00  0.00    +0.002 A 
ATOM     22  C   UNL     1       1.903  -1.657  -7.247  0.00  0.00    +0.026 A 
ENDBRANCH  10  17
BRANCH   1  24
ATOM     23  C   UNL     1      -3.436   0.421   0.766  0.00  0.00    +0.007 C 
ATOM     24  C   UNL     1      -2.369   0.004  -0.248  0.00  0.00    +0.032 C 
ENDBRANCH   1  24
BRANCH  13  25
ATOM     25  C   UNL     1      -0.911   2.998  -8.288  0.00  0.00    +0.124 C 
ATOM     26  C   UNL     1       0.340   3.879  -8.240  0.00  0.00    +0.027 C 
ENDBRANCH  13  25
TORSDOF 3
