REMARK  Name = ZINC09364773
REMARK  6 active torsions:
REMARK  status: ('A' for Active; 'I' for Inactive)
REMARK    1  A    between atoms: C_1  and  C_2
REMARK    2  A    between atoms: C_2  and  C_4
REMARK    3  A    between atoms: C_2  and  N_14
REMARK    4  A    between atoms: C_15  and  C_17
REMARK    5  A    between atoms: C_17  and  C_18
REMARK    6  A    between atoms: C_23  and  N_24
REMARK                            x       y       z     vdW  Elec       q    Type
REMARK                         _______ _______ _______ _____ _____    ______ ____
ROOT
ATOM      1  N   UNL     1      -3.227   2.880   0.892  0.00  0.00    -0.306 N 
ATOM      2  C   UNL     1      -2.026   2.269   0.860  0.00  0.00    +0.218 C 
ATOM      3  O   UNL     1      -1.502   1.906   1.892  0.00  0.00    -0.275 OA
ATOM      4  H   UNL     1      -3.646   3.169   0.067  0.00  0.00    +0.149 HD
ENDROOT
BRANCH   1   6
ATOM      5  C   UNL     1      -4.689   1.855   2.563  0.00  0.00    +0.036 C 
ATOM      6  C   UNL     1      -3.899   3.106   2.174  0.00  0.00    +0.136 C 
BRANCH   6   7
ATOM      7  C   UNL     1      -4.841   4.276   2.047  0.00  0.00    +0.128 A 
ATOM      8  N   UNL     1      -5.255   5.058   3.080  0.00  0.00    -0.340 N 
ATOM      9  H   UNL     1      -4.994   4.959   4.040  0.00  0.00    +0.167 HD
ATOM     10  C   UNL     1      -6.103   6.014   2.556  0.00  0.00    +0.066 A 
ATOM     11  C   UNL     1      -6.823   7.069   3.100  0.00  0.00    +0.028 A 
ATOM     12  C   UNL     1      -7.603   7.857   2.280  0.00  0.00    +0.002 A 
ATOM     13  C   UNL     1      -7.675   7.600   0.918  0.00  0.00    +0.002 A 
ATOM     14  C   UNL     1      -6.973   6.566   0.366  0.00  0.00    +0.030 A 
ATOM     15  C   UNL     1      -6.175   5.755   1.177  0.00  0.00    +0.089 A 
ATOM     16  N   UNL     1      -5.381   4.681   0.935  0.00  0.00    -0.231 NA
ENDBRANCH   6   7
ENDBRANCH   1   6
BRANCH   2  17
ATOM     17  C   UNL     1      -1.334   2.035  -0.458  0.00  0.00    +0.133 C 
BRANCH  17  18
ATOM     18  C   UNL     1      -0.018   1.341  -0.219  0.00  0.00    -0.008 A 
ATOM     19  C   UNL     1       1.160   2.065  -0.240  0.00  0.00    +0.006 A 
ATOM     20  C   UNL     1       2.367   1.427  -0.027  0.00  0.00    +0.000 A 
ATOM     21  C   UNL     1       2.397   0.065   0.207  0.00  0.00    +0.002 A 
ATOM     22  C   UNL     1       1.220  -0.659   0.228  0.00  0.00    +0.033 A 
ATOM     23  C   UNL     1       0.012  -0.021   0.015  0.00  0.00    +0.130 A 
BRANCH  23  24
ATOM     24  N   UNL     1      -1.248  -0.796   0.037  0.00  0.00    +0.057 N 
ATOM     25  O   UNL     1      -1.216  -2.010   0.136  0.00  0.00    -0.126 OA
ATOM     26  O   UNL     1      -2.319  -0.220  -0.044  0.00  0.00    -0.126 OA
ENDBRANCH  23  24
ENDBRANCH  17  18
ENDBRANCH   2  17
TORSDOF 5
