REMARK  Name = ZINC63571211
REMARK  2 active torsions:
REMARK  status: ('A' for Active; 'I' for Inactive)
REMARK    1  A    between atoms: C_5  and  C_7
REMARK    2  A    between atoms: N_24  and  C_25
REMARK                            x       y       z     vdW  Elec       q    Type
REMARK                         _______ _______ _______ _____ _____    ______ ____
ROOT
ATOM      1  C   UNL     1       0.717  -2.458  -0.782  0.00  0.00    +0.137 C 
ATOM      2  C   UNL     1       0.566  -3.361  -2.011  0.00  0.00    +0.131 C 
ATOM      3  C   UNL     1       0.519  -4.793  -1.495  0.00  0.00    -0.035 C 
ATOM      4  C   UNL     1       1.491  -5.449  -2.118  0.00  0.00    -0.001 A 
ATOM      5  C   UNL     1       1.894  -6.864  -2.088  0.00  0.00    +0.010 A 
ATOM      6  C   UNL     1       2.964  -7.199  -2.857  0.00  0.00    +0.001 A 
ATOM      7  C   UNL     1       3.665  -6.279  -3.642  0.00  0.00    +0.002 A 
ATOM      8  C   UNL     1       3.362  -4.959  -3.732  0.00  0.00    +0.026 A 
ATOM      9  C   UNL     1       2.252  -4.487  -2.973  0.00  0.00    +0.043 A 
ATOM     10  N   UNL     1       1.729  -3.276  -2.896  0.00  0.00    -0.375 N 
ATOM     11  C   UNL     1      -0.443  -5.236  -0.420  0.00  0.00    +0.052 C 
ATOM     12  C   UNL     1      -0.301  -4.235   0.741  0.00  0.00    +0.114 C 
ATOM     13  N   UNL     1      -0.290  -2.868   0.208  0.00  0.00    -0.276 N 
ATOM     14  C   UNL     1      -1.214  -1.981   0.628  0.00  0.00    +0.307 C 
ATOM     15  O   UNL     1      -1.284  -0.884   0.108  0.00  0.00    -0.252 OA
ATOM     16  N   UNL     1      -2.059  -2.309   1.625  0.00  0.00    -0.267 N 
ATOM     17  H   UNL     1      -1.961  -3.157   2.085  0.00  0.00    +0.156 HD
ATOM     18  H   UNL     1       2.051  -2.473  -3.334  0.00  0.00    +0.160 HD
ENDROOT
BRANCH  16  19
ATOM     19  C   UNL     1      -3.079  -1.424   1.998  0.00  0.00    +0.070 A 
ATOM     20  C   UNL     1      -2.915  -0.058   1.818  0.00  0.00    +0.027 A 
ATOM     21  C   UNL     1      -3.923   0.813   2.186  0.00  0.00    +0.017 A 
ATOM     22  C   UNL     1      -5.095   0.325   2.735  0.00  0.00    +0.021 A 
ATOM     23  C   UNL     1      -5.263  -1.036   2.917  0.00  0.00    +0.055 A 
ATOM     24  C   UNL     1      -4.260  -1.913   2.545  0.00  0.00    +0.146 A 
ATOM     25  F   UNL     1      -4.426  -3.243   2.717  0.00  0.00    -0.204 F 
ATOM     26 BR   UNL     1      -6.471   1.520   3.237  0.00  0.00    -0.050 Br
ENDBRANCH  16  19
BRANCH   1  31
ATOM     27  C   UNL     1      -0.372   0.598  -2.714  0.00  0.00    +0.000 A 
ATOM     28  C   UNL     1       0.076   1.618  -1.895  0.00  0.00    +0.003 A 
ATOM     29  C   UNL     1       0.732   1.321  -0.716  0.00  0.00    +0.039 A 
ATOM     30  C   UNL     1       0.940   0.000  -0.354  0.00  0.00    +0.128 A 
ATOM     31  C   UNL     1       0.491  -1.020  -1.174  0.00  0.00    +0.010 A 
ATOM     32  C   UNL     1      -0.165  -0.721  -2.354  0.00  0.00    +0.008 A 
ATOM     33  F   UNL     1       1.581  -0.291   0.799  0.00  0.00    -0.205 F 
ENDBRANCH   1  31
TORSDOF 2
