REMARK  Name = ZINC65771510
REMARK  5 active torsions:
REMARK  status: ('A' for Active; 'I' for Inactive)
REMARK    1  A    between atoms: C_3  and  O_10
REMARK    2  A    between atoms: C_6  and  C_7
REMARK    3  A    between atoms: O_10  and  C_11
REMARK    4  A    between atoms: C_11  and  C_13
REMARK    5  A    between atoms: C_13  and  C_19
REMARK                            x       y       z     vdW  Elec       q    Type
REMARK                         _______ _______ _______ _____ _____    ______ ____
ROOT
ATOM      1  C   UNL     1       4.674   1.463   0.045  0.00  0.00    +0.323 C 
ATOM      2  O   UNL     1       4.616   0.256   0.051  0.00  0.00    -0.249 OA
ENDROOT
BRANCH   1   3
ATOM      3  C   UNL     1       6.007   2.154   0.177  0.00  0.00    +0.098 C 
ATOM      4  C   UNL     1       6.203   3.119  -0.997  0.00  0.00    +0.051 C 
ATOM      5  C   UNL     1       6.234   2.320  -2.303  0.00  0.00    +0.161 C 
ATOM      6  O   UNL     1       7.280   1.348  -2.241  0.00  0.00    -0.380 OA
ATOM      7  C   UNL     1       7.124   0.391  -1.191  0.00  0.00    +0.161 C 
ATOM      8  C   UNL     1       7.129   1.112   0.160  0.00  0.00    +0.051 C 
BRANCH   3   9
ATOM      9  C   UNL     1       6.051   2.921   1.474  0.00  0.00    -0.012 A 
ATOM     10  C   UNL     1       6.303   4.280   1.465  0.00  0.00    +0.007 A 
ATOM     11  C   UNL     1       6.343   4.984   2.653  0.00  0.00    +0.020 A 
ATOM     12  C   UNL     1       6.131   4.328   3.853  0.00  0.00    +0.042 A 
ATOM     13  C   UNL     1       5.879   2.968   3.863  0.00  0.00    +0.040 A 
ATOM     14  C   UNL     1       5.834   2.265   2.672  0.00  0.00    +0.047 A 
ATOM     15 CL   UNL     1       5.511   0.560   2.683  0.00  0.00    -0.083 Cl
ATOM     16 CL   UNL     1       6.183   5.212   5.347  0.00  0.00    -0.083 Cl
ENDBRANCH   3   9
ENDBRANCH   1   3
BRANCH   1  17
ATOM     17  O   UNL     1       3.551   2.189  -0.081  0.00  0.00    -0.425 OA
BRANCH  17  20
ATOM     18  C   UNL     1       0.685   0.291   1.101  0.00  0.00    +0.016 A 
ATOM     19  C   UNL     1       1.889   0.959   1.096  0.00  0.00    +0.047 A 
ATOM     20  C   UNL     1       2.364   1.530  -0.079  0.00  0.00    +0.132 A 
ATOM     21  C   UNL     1       1.626   1.430  -1.252  0.00  0.00    +0.047 A 
ATOM     22  C   UNL     1       0.420   0.763  -1.255  0.00  0.00    +0.016 A 
ATOM     23  C   UNL     1      -0.060   0.188  -0.076  0.00  0.00    +0.037 A 
BRANCH  23  24
ATOM     24  C   UNL     1      -1.351  -0.528  -0.074  0.00  0.00    +0.242 C 
ATOM     25  O   UNL     1      -1.768  -1.029   0.952  0.00  0.00    -0.270 OA
ATOM     26  N   UNL     1      -2.068  -0.627  -1.211  0.00  0.00    -0.325 N 
ATOM     27  H   UNL     1      -1.736  -0.227  -2.030  0.00  0.00    +0.145 HD
ATOM     28  H   UNL     1      -2.917  -1.097  -1.210  0.00  0.00    +0.145 HD
ENDBRANCH  23  24
ENDBRANCH  17  20
ENDBRANCH   1  17
TORSDOF 5
