REMARK  Name = ZINC09503927
REMARK  5 active torsions:
REMARK  status: ('A' for Active; 'I' for Inactive)
REMARK    1  A    between atoms: C_5  and  C_7
REMARK    2  A    between atoms: C_10  and  S_17
REMARK    3  A    between atoms: N_11  and  C_12
REMARK    4  A    between atoms: S_17  and  C_18
REMARK    5  A    between atoms: C_18  and  C_19
REMARK                            x       y       z     vdW  Elec       q    Type
REMARK                         _______ _______ _______ _____ _____    ______ ____
ROOT
ATOM      1  C   UNL     1       2.420   3.944   0.079  0.00  0.00    +0.167 A 
ATOM      2  N   UNL     1       3.631   3.441   0.130  0.00  0.00    -0.128 NA
ATOM      3  N   UNL     1       4.501   4.378  -0.000  0.00  0.00    -0.122 NA
ATOM      4  C   UNL     1       3.898   5.538  -0.135  0.00  0.00    +0.193 A 
ATOM      5  N   UNL     1       2.554   5.303  -0.090  0.00  0.00    -0.299 N 
ENDROOT
BRANCH   1  10
ATOM      6  C   UNL     1      -1.033   2.926   1.149  0.00  0.00    +0.001 A 
ATOM      7  C   UNL     1      -1.224   1.783   0.394  0.00  0.00    +0.001 A 
ATOM      8  C   UNL     1      -0.237   1.345  -0.471  0.00  0.00    +0.021 A 
ATOM      9  C   UNL     1       0.951   2.041  -0.577  0.00  0.00    +0.052 A 
ATOM     10  C   UNL     1       1.151   3.193   0.187  0.00  0.00    +0.038 A 
ATOM     11  C   UNL     1       0.148   3.632   1.053  0.00  0.00    +0.013 A 
ATOM     12 CL   UNL     1       2.191   1.486  -1.657  0.00  0.00    -0.083 Cl
ENDBRANCH   1  10
BRANCH   5  13
ATOM     13  C   UNL     1       1.478   6.292  -0.198  0.00  0.00    +0.091 C 
ATOM     14  C   UNL     1       1.585   7.044  -1.541  0.00  0.00    +0.025 C 
ATOM     15  C   UNL     1       1.177   8.498  -1.195  0.00  0.00    +0.002 C 
ATOM     16  C   UNL     1       1.809   8.707   0.204  0.00  0.00    +0.002 C 
ATOM     17  C   UNL     1       1.620   7.348   0.911  0.00  0.00    +0.025 C 
ENDBRANCH   5  13
BRANCH   4  18
ATOM     18  S   UNL     1       4.679   7.104  -0.336  0.00  0.00    -0.078 S 
BRANCH  18  19
ATOM     19  C   UNL     1       6.417   6.597  -0.295  0.00  0.00    +0.151 C 
BRANCH  19  20
ATOM     20  C   UNL     1       7.298   7.809  -0.454  0.00  0.00    +0.121 A 
ATOM     21  N   UNL     1       8.645   7.634  -0.449  0.00  0.00    -0.309 N 
ATOM     22  H   UNL     1       9.023   6.746  -0.345  0.00  0.00    +0.170 HD
ATOM     23  C   UNL     1       9.456   8.710  -0.591  0.00  0.00    +0.266 A 
ATOM     24  O   UNL     1      10.669   8.586  -0.590  0.00  0.00    -0.267 OA
ATOM     25  C   UNL     1       8.863   9.964  -0.737  0.00  0.00    +0.102 A 
ATOM     26  C   UNL     1       7.466  10.119  -0.739  0.00  0.00    +0.085 A 
ATOM     27  N   UNL     1       6.734   8.966  -0.593  0.00  0.00    -0.232 NA
ATOM     28  C   UNL     1       7.004  11.433  -0.894  0.00  0.00    +0.036 A 
ATOM     29  C   UNL     1       7.883  12.450  -1.029  0.00  0.00    +0.048 A 
ATOM     30  S   UNL     1       9.461  11.621  -0.947  0.00  0.00    -0.090 S 
ENDBRANCH  19  20
ENDBRANCH  18  19
ENDBRANCH   4  18
TORSDOF 5
