REMARK  Name = ZINC15274879
REMARK  10 active torsions:
REMARK  status: ('A' for Active; 'I' for Inactive)
REMARK    1  A    between atoms: C_1  and  C_2
REMARK    2  A    between atoms: C_2  and  O_3
REMARK    3  A    between atoms: O_3  and  C_4
REMARK    4  A    between atoms: C_4  and  C_6
REMARK    5  A    between atoms: C_7  and  C_14
REMARK    6  A    between atoms: C_8  and  C_12
REMARK    7  A    between atoms: C_9  and  N_11
REMARK    8  A    between atoms: C_14  and  S_15
REMARK    9  A    between atoms: S_15  and  C_16
REMARK   10  A    between atoms: N_26  and  C_27
REMARK                            x       y       z     vdW  Elec       q    Type
REMARK                         _______ _______ _______ _____ _____    ______ ____
ROOT
ATOM      1  C   UNL     1       2.931   4.244  -1.190  0.00  0.00    +0.177 A 
ATOM      2  N   UNL     1       4.052   4.915  -1.270  0.00  0.00    -0.223 NA
ATOM      3  C   UNL     1       4.724   5.305  -0.168  0.00  0.00    +0.079 A 
ATOM      4  C   UNL     1       5.921   6.022  -0.255  0.00  0.00    +0.028 A 
ATOM      5  C   UNL     1       6.569   6.396   0.888  0.00  0.00    +0.002 A 
ATOM      6  C   UNL     1       6.056   6.077   2.138  0.00  0.00    +0.001 A 
ATOM      7  C   UNL     1       4.888   5.377   2.256  0.00  0.00    +0.015 A 
ATOM      8  C   UNL     1       4.205   4.981   1.106  0.00  0.00    +0.065 A 
ATOM      9  C   UNL     1       2.943   4.232   1.172  0.00  0.00    +0.267 A 
ATOM     10  O   UNL     1       2.444   3.928   2.240  0.00  0.00    -0.267 OA
ATOM     11  N   UNL     1       2.358   3.889   0.001  0.00  0.00    -0.254 N 
ENDROOT
BRANCH  11  12
ATOM     12  C   UNL     1       1.155   3.170   0.008  0.00  0.00    +0.070 A 
ATOM     13  C   UNL     1       1.175   1.782   0.000  0.00  0.00    +0.028 A 
ATOM     14  C   UNL     1      -0.013   1.076   0.008  0.00  0.00    +0.002 A 
ATOM     15  C   UNL     1      -1.220   1.750   0.017  0.00  0.00    +0.002 A 
ATOM     16  C   UNL     1      -1.243   3.132   0.031  0.00  0.00    +0.022 A 
ATOM     17  C   UNL     1      -0.059   3.845   0.023  0.00  0.00    +0.065 A 
ATOM     18 CL   UNL     1      -0.088   5.581   0.032  0.00  0.00    -0.081 Cl
ENDBRANCH  11  12
BRANCH   1  19
ATOM     19  S   UNL     1       2.122   3.775  -2.683  0.00  0.00    -0.082 S 
BRANCH  19  20
ATOM     20  C   UNL     1       3.270   4.475  -3.895  0.00  0.00    +0.115 C 
BRANCH  20  22
ATOM     21  C   UNL     1       1.923   5.065  -5.939  0.00  0.00    +0.103 A 
ATOM     22  C   UNL     1       2.768   4.189  -5.287  0.00  0.00    +0.003 A 
ATOM     23  C   UNL     1       3.140   3.040  -5.964  0.00  0.00    +0.084 A 
ATOM     24  C   UNL     1       2.627   2.844  -7.251  0.00  0.00    +0.082 A 
ATOM     25  S   UNL     1       1.653   4.255  -7.504  0.00  0.00    -0.066 S 
BRANCH  24  26
ATOM     26  N   UNL     1       2.847   1.791  -8.110  0.00  0.00    -0.352 N 
ATOM     27  H   UNL     1       2.429   1.783  -8.985  0.00  0.00    +0.143 HD
ATOM     28  H   UNL     1       3.421   1.057  -7.840  0.00  0.00    +0.143 HD
ENDBRANCH  24  26
BRANCH  21  29
ATOM     29  C   UNL     1       1.401   6.300  -5.478  0.00  0.00    +0.346 C 
ATOM     30  O   UNL     1       1.692   6.709  -4.370  0.00  0.00    -0.244 OA
BRANCH  29  31
ATOM     31  O   UNL     1       0.581   7.023  -6.270  0.00  0.00    -0.461 OA
BRANCH  31  33
ATOM     32  C   UNL     1      -0.815   8.930  -6.774  0.00  0.00    +0.048 C 
ATOM     33  C   UNL     1       0.092   8.258  -5.742  0.00  0.00    +0.229 C 
ENDBRANCH  31  33
ENDBRANCH  29  31
ENDBRANCH  21  29
BRANCH  23  34
ATOM     34  C   UNL     1       4.018   2.080  -5.364  0.00  0.00    +0.102 C 
ATOM     35  N   UNL     1       4.714   1.319  -4.889  0.00  0.00    -0.191 NA
ENDBRANCH  23  34
ENDBRANCH  20  22
ENDBRANCH  19  20
ENDBRANCH   1  19
TORSDOF 9
