REMARK  Name = ZINC33700282
REMARK  7 active torsions:
REMARK  status: ('A' for Active; 'I' for Inactive)
REMARK    1  A    between atoms: C_4  and  C_7
REMARK    2  A    between atoms: C_7  and  C_8
REMARK    3  A    between atoms: C_8  and  C_10
REMARK    4  A    between atoms: C_8  and  N_16
REMARK    5  A    between atoms: C_17  and  C_19
REMARK    6  A    between atoms: C_22  and  C_24
REMARK    7  A    between atoms: C_29  and  N_30
REMARK                            x       y       z     vdW  Elec       q    Type
REMARK                         _______ _______ _______ _____ _____    ______ ____
ROOT
ATOM      1  N   UNL     1      -2.944  -3.447   0.641  0.00  0.00    -0.303 N 
ATOM      2  C   UNL     1      -3.882  -2.481   0.693  0.00  0.00    +0.266 C 
ATOM      3  O   UNL     1      -5.053  -2.777   0.836  0.00  0.00    -0.268 OA
ATOM      4  H   UNL     1      -1.885  -3.179   0.512  0.00  0.00    +0.150 HD
ENDROOT
BRANCH   2   5
ATOM      5  C   UNL     1      -3.489  -1.065   0.577  0.00  0.00    +0.164 A 
ATOM      6  C   UNL     1      -4.324   0.010   0.611  0.00  0.00    +0.230 A 
ATOM      7  O   UNL     1      -3.562   1.108   0.476  0.00  0.00    -0.443 OA
ATOM      8  C   UNL     1      -2.281   0.718   0.352  0.00  0.00    +0.230 A 
ATOM      9  N   UNL     1      -2.227  -0.590   0.414  0.00  0.00    -0.204 NA
BRANCH   8  10
ATOM     10  C   UNL     1      -1.123   1.617   0.179  0.00  0.00    +0.057 A 
ATOM     11  C   UNL     1      -0.981   2.743   0.992  0.00  0.00    +0.015 A 
ATOM     12  C   UNL     1       0.105   3.576   0.830  0.00  0.00    +0.001 A 
ATOM     13  C   UNL     1       1.056   3.304  -0.140  0.00  0.00    +0.002 A 
ATOM     14  C   UNL     1       0.926   2.197  -0.955  0.00  0.00    +0.023 A 
ATOM     15  C   UNL     1      -0.162   1.348  -0.806  0.00  0.00    +0.037 A 
BRANCH  15  16
ATOM     16  N   UNL     1      -0.296   0.232  -1.628  0.00  0.00    -0.357 N 
ATOM     17  H   UNL     1       0.459   0.023  -2.400  0.00  0.00    +0.142 HD
ATOM     18  H   UNL     1      -1.157  -0.442  -1.504  0.00  0.00    +0.142 HD
ENDBRANCH  15  16
ENDBRANCH   8  10
ENDBRANCH   2   5
BRANCH   1  19
ATOM     19  C   UNL     1      -3.334  -4.854   0.757  0.00  0.00    +0.108 C 
BRANCH  19  20
ATOM     20  C   UNL     1      -3.739  -5.376  -0.597  0.00  0.00    -0.027 A 
ATOM     21  C   UNL     1      -3.029  -5.002  -1.723  0.00  0.00    +0.005 A 
ATOM     22  C   UNL     1      -3.398  -5.484  -2.965  0.00  0.00    +0.000 A 
ATOM     23  C   UNL     1      -4.482  -6.334  -3.082  0.00  0.00    +0.000 A 
ATOM     24  C   UNL     1      -5.196  -6.704  -1.957  0.00  0.00    +0.000 A 
ATOM     25  C   UNL     1      -4.824  -6.225  -0.715  0.00  0.00    +0.005 A 
ENDBRANCH  19  20
BRANCH  19  26
ATOM     26  C   UNL     1      -2.152  -5.670   1.285  0.00  0.00    +0.062 C 
BRANCH  26  30
ATOM     27  C   UNL     1      -1.226  -4.423   5.265  0.00  0.00    +0.000 A 
ATOM     28  C   UNL     1      -2.134  -5.444   5.054  0.00  0.00    +0.000 A 
ATOM     29  C   UNL     1      -2.434  -5.847   3.766  0.00  0.00    +0.004 A 
ATOM     30  C   UNL     1      -1.825  -5.230   2.689  0.00  0.00    -0.045 A 
ATOM     31  C   UNL     1      -0.913  -4.213   2.900  0.00  0.00    +0.004 A 
ATOM     32  C   UNL     1      -0.617  -3.806   4.188  0.00  0.00    +0.000 A 
ENDBRANCH  26  30
ENDBRANCH  19  26
ENDBRANCH   1  19
TORSDOF 7
