REMARK  Name = ZINC39531484
REMARK  12 active torsions:
REMARK  status: ('A' for Active; 'I' for Inactive)
REMARK    1  A    between atoms: C_1  and  C_2
REMARK    2  A    between atoms: C_2  and  C_3
REMARK    3  A    between atoms: C_2  and  S_4
REMARK    4  A    between atoms: S_4  and  C_7
REMARK    5  A    between atoms: N_10  and  C_14
REMARK    6  A    between atoms: C_14  and  C_16
REMARK    7  A    between atoms: C_14  and  C_25
REMARK    8  A    between atoms: C_16  and  N_17
REMARK    9  A    between atoms: N_17  and  C_18
REMARK   10  A    between atoms: C_18  and  C_19
REMARK   11  A    between atoms: C_28  and  C_31
REMARK   12  A    between atoms: C_31  and  C_32
REMARK                            x       y       z     vdW  Elec       q    Type
REMARK                         _______ _______ _______ _____ _____    ______ ____
ROOT
ATOM      1  C   UNL     1       0.283  -0.149   6.565  0.00  0.00    +0.070 C 
ENDROOT
BRANCH   1   4
ATOM      2  C   UNL     1      -0.353  -0.190   2.852  0.00  0.00    +0.212 C 
ATOM      3  C   UNL     1       0.372  -0.484   4.168  0.00  0.00    +0.127 C 
ATOM      4  N   UNL     1      -0.340   0.172   5.274  0.00  0.00    -0.293 NA
ATOM      5  C   UNL     1      -0.404   1.625   5.066  0.00  0.00    +0.100 C 
ATOM      6  C   UNL     1      -1.129   1.919   3.751  0.00  0.00    +0.098 C 
ATOM      7  N   UNL     1      -0.418   1.263   2.645  0.00  0.00    -0.293 NA
ATOM      8  H   UNL     1       0.506   1.653   2.528  0.00  0.00    +0.124 HD
BRANCH   2   9
ATOM      9  S   UNL     1       0.550  -0.958   1.479  0.00  0.00    -0.012 S 
ATOM     10  O   UNL     1       0.493  -2.369   1.637  0.00  0.00    -0.173 OA
ATOM     11  O   UNL     1       1.818  -0.326   1.366  0.00  0.00    -0.173 OA
BRANCH   9  13
ATOM     12  C   UNL     1      -0.515   1.023  -0.078  0.00  0.00    +0.031 C 
ATOM     13  C   UNL     1      -0.450  -0.502   0.036  0.00  0.00    +0.126 C 
ATOM     14  C   UNL     1       0.185  -1.082  -1.229  0.00  0.00    +0.031 C 
ENDBRANCH   9  13
ENDBRANCH   2   9
ENDBRANCH   1   4
BRANCH   1  15
ATOM     15  C   UNL     1       0.280  -1.642   6.766  0.00  0.00    -0.032 A 
ATOM     16  C   UNL     1      -0.819  -2.389   6.385  0.00  0.00    +0.005 A 
ATOM     17  C   UNL     1      -0.821  -3.759   6.571  0.00  0.00    +0.004 A 
ATOM     18  C   UNL     1       0.276  -4.382   7.136  0.00  0.00    -0.043 A 
ATOM     19  C   UNL     1       1.375  -3.635   7.516  0.00  0.00    +0.004 A 
ATOM     20  C   UNL     1       1.379  -2.266   7.327  0.00  0.00    +0.005 A 
BRANCH  18  21
ATOM     21  C   UNL     1       0.273  -5.875   7.339  0.00  0.00    +0.070 C 
BRANCH  21  22
ATOM     22  C   UNL     1       0.838  -6.550   6.115  0.00  0.00    -0.043 A 
ATOM     23  C   UNL     1      -0.000  -6.916   5.079  0.00  0.00    +0.004 A 
ATOM     24  C   UNL     1       0.518  -7.534   3.956  0.00  0.00    +0.000 A 
ATOM     25  C   UNL     1       1.874  -7.786   3.870  0.00  0.00    +0.000 A 
ATOM     26  C   UNL     1       2.713  -7.419   4.906  0.00  0.00    +0.000 A 
ATOM     27  C   UNL     1       2.195  -6.797   6.026  0.00  0.00    +0.004 A 
ENDBRANCH  21  22
ENDBRANCH  18  21
ENDBRANCH   1  15
BRANCH   1  28
ATOM     28  C   UNL     1      -0.507   0.519   7.692  0.00  0.00    -0.058 C 
BRANCH  28  29
ATOM     29  N   UNL     1       0.160   0.264   8.976  0.00  0.00    +0.383 N 
ATOM     30  H   UNL     1       0.238  -0.732   9.121  0.00  0.00    -0.085 HD
ATOM     31  H   UNL     1       1.081   0.676   8.964  0.00  0.00    -0.085 HD
BRANCH  29  32
ATOM     32  C   UNL     1      -0.628   0.858  10.064  0.00  0.00    -0.047 C 
BRANCH  32  33
ATOM     33  C   UNL     1       0.056   0.596  11.380  0.00  0.00    -0.064 A 
ATOM     34  C   UNL     1      -0.238  -0.550  12.096  0.00  0.00    +0.002 A 
ATOM     35  C   UNL     1       0.390  -0.790  13.304  0.00  0.00    +0.000 A 
ATOM     36  C   UNL     1       1.312   0.115  13.796  0.00  0.00    +0.000 A 
ATOM     37  C   UNL     1       1.607   1.260  13.080  0.00  0.00    +0.000 A 
ATOM     38  C   UNL     1       0.982   1.498  11.870  0.00  0.00    +0.002 A 
ENDBRANCH  32  33
ENDBRANCH  29  32
ENDBRANCH  28  29
ENDBRANCH   1  28
TORSDOF 10
