REMARK  Name = ZINC12105612
REMARK  11 active torsions:
REMARK  status: ('A' for Active; 'I' for Inactive)
REMARK    1  A    between atoms: C_1  and  C_2
REMARK    2  A    between atoms: C_2  and  C_4
REMARK    3  A    between atoms: C_2  and  S_17
REMARK    4  A    between atoms: C_4  and  C_6
REMARK    5  A    between atoms: C_7  and  N_16
REMARK    6  A    between atoms: N_8  and  C_15
REMARK    7  A    between atoms: N_11  and  C_14
REMARK    8  A    between atoms: S_17  and  C_18
REMARK    9  A    between atoms: C_21  and  C_29
REMARK   10  A    between atoms: N_22  and  C_23
REMARK   11  A    between atoms: C_29  and  C_30
REMARK                            x       y       z     vdW  Elec       q    Type
REMARK                         _______ _______ _______ _____ _____    ______ ____
ROOT
ATOM      1  S   UNL     1       2.677  -4.291   1.104  0.00  0.00    -0.075 S 
ENDROOT
BRANCH   1   2
ATOM      2  C   UNL     1       4.323  -4.637   1.631  0.00  0.00    +0.197 A 
ATOM      3  N   UNL     1       5.207  -3.764   2.054  0.00  0.00    -0.122 NA
ATOM      4  N   UNL     1       6.302  -4.363   2.360  0.00  0.00    -0.133 NA
ATOM      5  C   UNL     1       6.189  -5.644   2.144  0.00  0.00    +0.143 A 
ATOM      6  N   UNL     1       4.923  -5.866   1.671  0.00  0.00    -0.274 N 
BRANCH   6   7
ATOM      7  C   UNL     1       4.359  -7.097   1.306  0.00  0.00    +0.050 A 
ATOM      8  C   UNL     1       4.163  -8.084   2.262  0.00  0.00    +0.026 A 
ATOM      9  C   UNL     1       3.602  -9.293   1.900  0.00  0.00    +0.002 A 
ATOM     10  C   UNL     1       3.246  -9.525   0.584  0.00  0.00    +0.000 A 
ATOM     11  C   UNL     1       3.446  -8.546  -0.372  0.00  0.00    +0.002 A 
ATOM     12  C   UNL     1       4.001  -7.333  -0.015  0.00  0.00    +0.026 A 
ENDBRANCH   6   7
BRANCH   5  13
ATOM     13  C   UNL     1       7.254  -6.686   2.371  0.00  0.00    +0.111 C 
BRANCH  13  14
ATOM     14  C   UNL     1       8.073  -6.849   1.117  0.00  0.00    -0.040 A 
ATOM     15  C   UNL     1       7.700  -7.779   0.164  0.00  0.00    +0.004 A 
ATOM     16  C   UNL     1       8.448  -7.925  -0.989  0.00  0.00    +0.000 A 
ATOM     17  C   UNL     1       9.576  -7.149  -1.184  0.00  0.00    +0.000 A 
ATOM     18  C   UNL     1       9.951  -6.223  -0.229  0.00  0.00    +0.000 A 
ATOM     19  C   UNL     1       9.200  -6.073   0.921  0.00  0.00    +0.004 A 
ENDBRANCH  13  14
ENDBRANCH   5  13
ENDBRANCH   1   2
BRANCH   1  21
ATOM     20  C   UNL     1       2.782  -2.175   2.829  0.00  0.00    +0.028 C 
ATOM     21  C   UNL     1       2.643  -2.497   1.339  0.00  0.00    +0.122 C 
BRANCH  21  22
ATOM     22  C   UNL     1       1.337  -1.948   0.826  0.00  0.00    +0.185 C 
ATOM     23  O   UNL     1       0.356  -2.663   0.775  0.00  0.00    -0.291 OA
BRANCH  22  24
ATOM     24  C   UNL     1       1.253  -0.604   0.405  0.00  0.00    +0.121 A 
ATOM     25  C   UNL     1       0.084  -0.103  -0.194  0.00  0.00    +0.116 A 
ATOM     26  N   UNL     1       0.051   1.206  -0.585  0.00  0.00    -0.284 N 
ATOM     27  C   UNL     1       1.108   2.014  -0.407  0.00  0.00    +0.333 A 
ATOM     28  O   UNL     1       1.028   3.170  -0.773  0.00  0.00    -0.246 OA
ATOM     29  N   UNL     1       2.250   1.592   0.159  0.00  0.00    -0.263 N 
ATOM     30  C   UNL     1       2.384   0.317   0.579  0.00  0.00    +0.269 A 
ATOM     31  O   UNL     1       3.421  -0.062   1.092  0.00  0.00    -0.267 OA
ATOM     32  C   UNL     1       3.365   2.528   0.322  0.00  0.00    +0.157 C 
ATOM     33  C   UNL     1      -1.160   1.736  -1.216  0.00  0.00    +0.155 C 
BRANCH  25  34
ATOM     34  N   UNL     1      -0.996  -0.908  -0.382  0.00  0.00    -0.344 N 
ATOM     35  H   UNL     1      -1.882  -0.521  -0.460  0.00  0.00    +0.144 HD
ATOM     36  H   UNL     1      -0.881  -1.869  -0.438  0.00  0.00    +0.144 HD
ENDBRANCH  25  34
ENDBRANCH  22  24
ENDBRANCH  21  22
ENDBRANCH   1  21
TORSDOF 8
