REMARK  Name = ZINC11785356
REMARK  15 active torsions:
REMARK  status: ('A' for Active; 'I' for Inactive)
REMARK    1  A    between atoms: C_1  and  C_2
REMARK    2  A    between atoms: C_2  and  C_3
REMARK    3  A    between atoms: C_3  and  C_5
REMARK    4  A    between atoms: C_3  and  C_6
REMARK    5  A    between atoms: C_6  and  C_8
REMARK    6  A    between atoms: C_6  and  N_62
REMARK    7  A    between atoms: C_8  and  O_10
REMARK    8  A    between atoms: O_10  and  C_11
REMARK    9  A    between atoms: C_12  and  N_62
REMARK   10  A    between atoms: N_15  and  C_18
REMARK   11  A    between atoms: C_21  and  N_24
REMARK   12  A    between atoms: N_24  and  S_25
REMARK   13  A    between atoms: S_25  and  N_28
REMARK   14  A    between atoms: N_28  and  C_29
REMARK   15  A    between atoms: N_28  and  C_30
REMARK                            x       y       z     vdW  Elec       q    Type
REMARK                         _______ _______ _______ _____ _____    ______ ____
ROOT
ATOM      1  C   UNL     1      -4.179   4.847  -0.962  0.00  0.00    -0.068 C 
ATOM      2  C   UNL     1      -4.350   4.530   0.527  0.00  0.00    +0.003 C 
ATOM      3  C   UNL     1      -3.304   3.495   0.946  0.00  0.00    +0.103 C 
ATOM      4  N   UNL     1      -3.473   2.275   0.146  0.00  0.00    -0.330 N 
ATOM      5  C   UNL     1      -3.266   2.545  -1.283  0.00  0.00    +0.103 C 
ATOM      6  C   UNL     1      -4.311   3.552  -1.769  0.00  0.00    +0.003 C 
ENDROOT
BRANCH   4   7
ATOM      7  C   UNL     1      -2.619   1.260   0.593  0.00  0.00    +0.030 A 
ATOM      8  C   UNL     1      -2.624   0.021  -0.035  0.00  0.00    +0.025 A 
ATOM      9  C   UNL     1      -1.782  -0.980   0.406  0.00  0.00    +0.026 A 
ATOM     10  C   UNL     1      -0.929  -0.749   1.477  0.00  0.00    +0.049 A 
ATOM     11  C   UNL     1      -0.927   0.488   2.108  0.00  0.00    +0.026 A 
ATOM     12  C   UNL     1      -1.766   1.491   1.664  0.00  0.00    +0.025 A 
BRANCH  10  13
ATOM     13  N   UNL     1      -0.074  -1.764   1.924  0.00  0.00    -0.206 N 
ATOM     14  H   UNL     1      -0.413  -2.664   2.045  0.00  0.00    +0.175 HD
BRANCH  13  15
ATOM     15  S   UNL     1       1.516  -1.428   2.239  0.00  0.00    +0.111 S 
ATOM     16  O   UNL     1       1.530  -0.291   3.091  0.00  0.00    -0.138 OA
ATOM     17  O   UNL     1       2.127  -2.659   2.601  0.00  0.00    -0.138 OA
BRANCH  15  18
ATOM     18  N   UNL     1       2.210  -0.957   0.810  0.00  0.00    -0.170 NA
ATOM     19  C   UNL     1       2.316   0.466   0.481  0.00  0.00    +0.132 C 
ATOM     20  C   UNL     1       2.718  -1.965  -0.124  0.00  0.00    +0.132 C 
ENDBRANCH  15  18
ENDBRANCH  13  15
ENDBRANCH  10  13
ENDBRANCH   4   7
BRANCH   1  21
ATOM     21  N   UNL     1      -5.226   5.799  -1.379  0.00  0.00    +0.390 N 
ATOM     22  H   UNL     1      -6.097   5.287  -1.559  0.00  0.00    -0.084 HD
ATOM     23  H   UNL     1      -5.379   6.483  -0.629  0.00  0.00    -0.084 HD
BRANCH  21  24
ATOM     24  C   UNL     1      -4.814   6.506  -2.606  0.00  0.00    +0.042 C 
BRANCH  24  25
ATOM     25  C   UNL     1      -6.058   7.051  -3.312  0.00  0.00    -0.018 C 
ATOM     26  C   UNL     1      -6.713   8.122  -2.438  0.00  0.00    +0.006 C 
BRANCH  25  28
ATOM     27  C   UNL     1      -5.073   6.576  -5.559  0.00  0.00    +0.004 C 
ATOM     28  C   UNL     1      -5.655   7.664  -4.654  0.00  0.00    -0.001 C 
ENDBRANCH  25  28
ENDBRANCH  24  25
BRANCH  24  29
ATOM     29  C   UNL     1      -3.901   7.649  -2.246  0.00  0.00    +0.293 C 
ATOM     30  O   UNL     1      -3.613   7.852  -1.090  0.00  0.00    -0.253 OA
BRANCH  29  31
ATOM     31  O   UNL     1      -3.406   8.442  -3.210  0.00  0.00    -0.469 OA
ATOM     32  C   UNL     1      -2.532   9.523  -2.790  0.00  0.00    +0.280 C 
ENDBRANCH  29  31
ENDBRANCH  24  29
ENDBRANCH  21  24
ENDBRANCH   1  21
TORSDOF 10
