REMARK  Name = ZINC14998680
REMARK  9 active torsions:
REMARK  status: ('A' for Active; 'I' for Inactive)
REMARK    1  A    between atoms: C_1  and  S_2
REMARK    2  A    between atoms: S_2  and  C_3
REMARK    3  A    between atoms: C_8  and  C_21
REMARK    4  A    between atoms: N_11  and  C_14
REMARK    5  A    between atoms: C_14  and  C_15
REMARK    6  A    between atoms: C_21  and  N_61
REMARK    7  A    between atoms: C_22  and  C_24
REMARK    8  A    between atoms: C_22  and  C_30
REMARK    9  A    between atoms: C_22  and  N_61
REMARK                            x       y       z     vdW  Elec       q    Type
REMARK                         _______ _______ _______ _____ _____    ______ ____
ROOT
ATOM      1  C   UNL     1      -1.231   3.139   0.032  0.00  0.00    +0.010 A 
ATOM      2  C   UNL     1      -1.201   1.742   0.017  0.00  0.00    +0.015 A 
ATOM      3  C   UNL     1      -0.013   1.076   0.008  0.00  0.00    +0.011 A 
ATOM      4  C   UNL     1       1.191   1.794   0.000  0.00  0.00    -0.001 A 
ATOM      5  C   UNL     1       2.439   1.121  -0.016  0.00  0.00    +0.017 A 
ATOM      6  C   UNL     1       3.584   1.848  -0.023  0.00  0.00    +0.001 A 
ATOM      7  C   UNL     1       3.533   3.257  -0.015  0.00  0.00    +0.253 A 
ATOM      8  O   UNL     1       4.571   3.895  -0.021  0.00  0.00    -0.267 OA
ATOM      9  N   UNL     1       2.354   3.908   0.001  0.00  0.00    -0.302 N 
ATOM     10  C   UNL     1       1.167   3.203   0.008  0.00  0.00    +0.053 A 
ATOM     11  C   UNL     1      -0.051   3.867   0.024  0.00  0.00    +0.041 A 
ENDROOT
BRANCH   1  13
ATOM     12  C   UNL     1      -4.005   2.644   0.057  0.00  0.00    +0.090 C 
ATOM     13  S   UNL     1      -2.779   3.980   0.052  0.00  0.00    -0.129 S 
ENDBRANCH   1  13
BRANCH   9  14
ATOM     14  C   UNL     1       2.332   5.372   0.009  0.00  0.00    +0.180 C 
BRANCH  14  15
ATOM     15  C   UNL     1       2.310   5.883  -1.409  0.00  0.00    +0.061 A 
ATOM     16  C   UNL     1       1.102   6.194  -2.004  0.00  0.00    +0.025 A 
ATOM     17  C   UNL     1       1.093   6.663  -3.309  0.00  0.00    +0.003 A 
ATOM     18  C   UNL     1       2.305   6.802  -3.969  0.00  0.00    +0.020 A 
ATOM     19  C   UNL     1       3.473   6.471  -3.309  0.00  0.00    +0.111 A 
ATOM     20  N   UNL     1       3.444   6.032  -2.065  0.00  0.00    -0.258 NA
ENDBRANCH  14  15
ENDBRANCH   9  14
BRANCH   6  21
ATOM     21  C   UNL     1       4.918   1.147  -0.040  0.00  0.00    -0.040 C 
BRANCH  21  22
ATOM     22  N   UNL     1       5.388   1.037  -1.434  0.00  0.00    +0.389 N 
ATOM     23  H   UNL     1       5.484   1.977  -1.834  0.00  0.00    -0.084 HD
ATOM     24  H   UNL     1       4.705   0.500  -1.981  0.00  0.00    -0.084 HD
BRANCH  22  25
ATOM     25  C   UNL     1       6.694   0.353  -1.481  0.00  0.00    -0.010 C 
BRANCH  25  26
ATOM     26  C   UNL     1       6.869  -0.286  -2.835  0.00  0.00    -0.057 A 
ATOM     27  C   UNL     1       6.447   0.376  -3.972  0.00  0.00    +0.004 A 
ATOM     28  C   UNL     1       6.612  -0.207  -5.214  0.00  0.00    +0.020 A 
ATOM     29  C   UNL     1       7.190  -1.460  -5.318  0.00  0.00    +0.041 A 
ATOM     30  C   UNL     1       7.608  -2.125  -4.179  0.00  0.00    +0.020 A 
ATOM     31  C   UNL     1       7.447  -1.538  -2.938  0.00  0.00    +0.004 A 
ATOM     32 CL   UNL     1       7.391  -2.197  -6.877  0.00  0.00    -0.084 Cl
ENDBRANCH  25  26
BRANCH  25  33
ATOM     33  C   UNL     1       7.796   1.356  -1.253  0.00  0.00    -0.057 A 
ATOM     34  C   UNL     1       7.716   2.612  -1.825  0.00  0.00    +0.002 A 
ATOM     35  C   UNL     1       8.724   3.534  -1.612  0.00  0.00    +0.000 A 
ATOM     36  C   UNL     1       9.817   3.196  -0.836  0.00  0.00    +0.000 A 
ATOM     37  C   UNL     1       9.899   1.938  -0.268  0.00  0.00    +0.000 A 
ATOM     38  C   UNL     1       8.889   1.018  -0.477  0.00  0.00    +0.002 A 
ENDBRANCH  25  33
ENDBRANCH  22  25
ENDBRANCH  21  22
ENDBRANCH   6  21
TORSDOF 8
