REMARK  Name = ZINC17902480
REMARK  7 active torsions:
REMARK  status: ('A' for Active; 'I' for Inactive)
REMARK    1  A    between atoms: C_1  and  C_2
REMARK    2  A    between atoms: C_2  and  C_3
REMARK    3  A    between atoms: C_8  and  N_9
REMARK    4  A    between atoms: C_10  and  C_12
REMARK    5  A    between atoms: C_12  and  N_13
REMARK    6  A    between atoms: C_14  and  C_16
REMARK    7  A    between atoms: C_22  and  C_27
REMARK                            x       y       z     vdW  Elec       q    Type
REMARK                         _______ _______ _______ _____ _____    ______ ____
ROOT
ATOM      1  N   UNL     1      -3.639  -1.986   0.043  0.00  0.00    -0.300 N 
ATOM      2  C   UNL     1      -2.509  -2.721   0.039  0.00  0.00    +0.280 C 
ATOM      3  O   UNL     1      -2.573  -3.934   0.041  0.00  0.00    -0.267 OA
ATOM      4  H   UNL     1      -3.587  -1.017   0.042  0.00  0.00    +0.150 HD
ENDROOT
BRANCH   2   5
ATOM      5  C   UNL     1      -1.188  -2.049   0.031  0.00  0.00    +0.193 A 
ATOM      6  C   UNL     1      -0.069  -2.813   0.027  0.00  0.00    +0.103 A 
ATOM      7  C   UNL     1       1.243  -2.147   0.019  0.00  0.00    +0.193 A 
ATOM      8  O   UNL     1       2.281  -2.784   0.015  0.00  0.00    -0.287 OA
ATOM      9  C   UNL     1       1.240  -0.672   0.017  0.00  0.00    +0.064 A 
ATOM     10  C   UNL     1       2.430   0.055   0.011  0.00  0.00    +0.018 A 
ATOM     11  C   UNL     1       2.388   1.422   0.010  0.00  0.00    -0.050 A 
ATOM     12  C   UNL     1       1.170   2.087   0.014  0.00  0.00    +0.007 A 
ATOM     13  C   UNL     1      -0.016   1.385   0.021  0.00  0.00    +0.047 A 
ATOM     14  C   UNL     1       0.003  -0.006   0.023  0.00  0.00    +0.139 A 
ATOM     15  O   UNL     1      -1.147  -0.708   0.030  0.00  0.00    -0.450 OA
ATOM     16  C   UNL     1       3.672   2.211   0.003  0.00  0.00    +0.044 C 
ENDBRANCH   2   5
BRANCH   1  17
ATOM     17  C   UNL     1      -4.944  -2.650   0.051  0.00  0.00    +0.200 C 
BRANCH  17  19
ATOM     18  N   UNL     1      -7.329  -1.992   0.062  0.00  0.00    -0.284 N 
ATOM     19  C   UNL     1      -6.036  -1.611   0.055  0.00  0.00    +0.234 C 
ATOM     20  O   UNL     1      -5.752  -0.432   0.052  0.00  0.00    -0.274 OA
ATOM     21  H   UNL     1      -7.558  -2.931  -0.017  0.00  0.00    +0.155 HD
BRANCH  18  27
ATOM     22  C   UNL     1      -9.614  -1.300  -0.303  0.00  0.00    -0.026 A 
ATOM     23  C   UNL     1     -10.610  -0.351  -0.183  0.00  0.00    +0.005 A 
ATOM     24  C   UNL     1     -10.341   0.864   0.420  0.00  0.00    +0.000 A 
ATOM     25  C   UNL     1      -9.074   1.133   0.905  0.00  0.00    +0.002 A 
ATOM     26  C   UNL     1      -8.074   0.186   0.792  0.00  0.00    +0.023 A 
ATOM     27  C   UNL     1      -8.340  -1.033   0.182  0.00  0.00    +0.037 A 
BRANCH  22  29
ATOM     28  C   UNL     1     -10.260  -3.658   0.112  0.00  0.00    +0.009 C 
ATOM     29  C   UNL     1      -9.909  -2.624  -0.960  0.00  0.00    +0.033 C 
ENDBRANCH  22  29
ENDBRANCH  18  27
ENDBRANCH  17  19
ENDBRANCH   1  17
TORSDOF 5
