REMARK  Name = ZINC63768647
REMARK  9 active torsions:
REMARK  status: ('A' for Active; 'I' for Inactive)
REMARK    1  A    between atoms: C_1  and  C_2
REMARK    2  A    between atoms: C_4  and  O_12
REMARK    3  A    between atoms: C_5  and  C_9
REMARK    4  A    between atoms: C_9  and  C_10
REMARK    5  A    between atoms: C_9  and  C_11
REMARK    6  A    between atoms: O_12  and  C_13
REMARK    7  A    between atoms: C_13  and  C_14
REMARK    8  A    between atoms: C_18  and  C_23
REMARK    9  A    between atoms: C_21  and  C_22
REMARK                            x       y       z     vdW  Elec       q    Type
REMARK                         _______ _______ _______ _____ _____    ______ ____
ROOT
ATOM      1  C   UNL     1       0.017  -2.879  -4.780  0.00  0.00    +0.253 C 
ATOM      2  O   UNL     1       0.034  -4.082  -4.626  0.00  0.00    -0.272 OA
ATOM      3  N   UNL     1       0.004  -2.358  -6.023  0.00  0.00    -0.295 N 
ATOM      4  C   UNL     1      -0.011  -0.903  -6.225  0.00  0.00    +0.121 C 
ATOM      5  C   UNL     1      -1.188  -0.544  -7.138  0.00  0.00    +0.092 C 
ATOM      6  C   UNL     1      -1.092  -1.357  -8.431  0.00  0.00    +0.016 C 
ATOM      7  C   UNL     1      -1.173  -2.850  -8.103  0.00  0.00    +0.023 C 
ATOM      8  C   UNL     1       0.010  -3.235  -7.202  0.00  0.00    +0.073 C 
ATOM      9  C   UNL     1       1.323  -3.057  -7.967  0.00  0.00    +0.028 C 
ENDROOT
BRANCH   5  10
ATOM     10  C   UNL     1      -1.141   0.927  -7.464  0.00  0.00    +0.215 C 
ATOM     11  O   UNL     1      -1.044   1.289  -8.617  0.00  0.00    -0.276 OA
ATOM     12  N   UNL     1      -1.206   1.839  -6.474  0.00  0.00    -0.329 N 
ATOM     13  H   UNL     1      -1.284   1.549  -5.551  0.00  0.00    +0.145 HD
ATOM     14  H   UNL     1      -1.176   2.786  -6.684  0.00  0.00    +0.145 HD
ENDBRANCH   5  10
BRANCH   1  15
ATOM     15  C   UNL     1       0.011  -1.966  -3.581  0.00  0.00    +0.324 C 
BRANCH  15  16
ATOM     16  O   UNL     1       0.028  -2.749  -2.386  0.00  0.00    -0.482 OA
BRANCH  16  20
ATOM     17  C   UNL     1      -0.018   1.503   0.010  0.00  0.00    +0.045 C 
ATOM     18  C   UNL     1       0.002  -0.004   0.002  0.00  0.00    -0.029 A 
ATOM     19  C   UNL     1       0.006  -0.688  -1.199  0.00  0.00    +0.050 A 
ATOM     20  C   UNL     1       0.025  -2.075  -1.206  0.00  0.00    +0.125 A 
ATOM     21  C   UNL     1       0.040  -2.773  -0.007  0.00  0.00    -0.002 A 
ATOM     22  C   UNL     1       0.036  -2.086   1.192  0.00  0.00    +0.027 A 
ATOM     23  C   UNL     1       0.023  -0.702   1.196  0.00  0.00    +0.044 A 
ATOM     24 CL   UNL     1       0.025   0.160   2.704  0.00  0.00    -0.083 Cl
BRANCH  21  25
ATOM     25  C   UNL     1       0.060  -4.279  -0.012  0.00  0.00    +0.016 C 
ATOM     26  C   UNL     1       1.319  -4.775   0.702  0.00  0.00    +0.012 C 
ATOM     27  C   UNL     1      -1.179  -4.808   0.714  0.00  0.00    +0.012 C 
ENDBRANCH  21  25
ENDBRANCH  16  20
ENDBRANCH  15  16
ENDBRANCH   1  15
TORSDOF 5
