REMARK  Name = ZINC06885603
REMARK  2 active torsions:
REMARK  status: ('A' for Active; 'I' for Inactive)
REMARK    1  A    between atoms: C_4  and  C_7
REMARK    2  A    between atoms: N_21  and  C_24
REMARK                            x       y       z     vdW  Elec       q    Type
REMARK                         _______ _______ _______ _____ _____    ______ ____
ROOT
ATOM      1  C   UNL     1      -0.804   1.618   1.230  0.00  0.00    +0.023 C 
ATOM      2  C   UNL     1      -0.245   1.052  -0.100  0.00  0.00    +0.012 C 
ATOM      3  C   UNL     1      -1.158   1.745  -1.186  0.00  0.00    +0.002 C 
ATOM      4  C   UNL     1      -2.526   1.533  -0.432  0.00  0.00    +0.009 C 
ATOM      5  C   UNL     1      -2.128   2.364   0.872  0.00  0.00    +0.009 C 
ATOM      6  C   UNL     1      -1.867   3.620   0.139  0.00  0.00    +0.092 C 
ATOM      7  C   UNL     1      -0.781   3.207  -0.926  0.00  0.00    +0.091 C 
ATOM      8  C   UNL     1      -1.058   4.328  -1.866  0.00  0.00    +0.230 C 
ATOM      9  O   UNL     1      -1.071   4.296  -3.078  0.00  0.00    -0.274 OA
ATOM     10  N   UNL     1      -1.295   5.409  -1.046  0.00  0.00    -0.210 N 
ATOM     11  C   UNL     1      -1.624   5.031   0.240  0.00  0.00    +0.230 C 
ATOM     12  O   UNL     1      -1.692   5.730   1.228  0.00  0.00    -0.274 OA
ENDROOT
BRANCH  10  13
ATOM     13  C   UNL     1      -1.213   6.743  -1.470  0.00  0.00    +0.044 A 
ATOM     14  C   UNL     1      -1.475   7.774  -0.578  0.00  0.00    +0.025 A 
ATOM     15  C   UNL     1      -1.388   9.087  -0.997  0.00  0.00    +0.017 A 
ATOM     16  C   UNL     1      -1.051   9.375  -2.308  0.00  0.00    +0.018 A 
ATOM     17  C   UNL     1      -0.796   8.350  -3.200  0.00  0.00    +0.017 A 
ATOM     18  C   UNL     1      -0.876   7.035  -2.785  0.00  0.00    +0.025 A 
ATOM     19 BR   UNL     1      -0.940  11.174  -2.880  0.00  0.00    -0.050 Br
ENDBRANCH  10  13
BRANCH   1  23
ATOM     20  C   UNL     1      -1.604  -1.572   3.955  0.00  0.00    +0.000 A 
ATOM     21  C   UNL     1      -2.550  -1.215   3.012  0.00  0.00    +0.000 A 
ATOM     22  C   UNL     1      -2.291  -0.183   2.130  0.00  0.00    +0.004 A 
ATOM     23  C   UNL     1      -1.086   0.493   2.191  0.00  0.00    -0.044 A 
ATOM     24  C   UNL     1      -0.139   0.133   3.131  0.00  0.00    +0.004 A 
ATOM     25  C   UNL     1      -0.400  -0.896   4.016  0.00  0.00    +0.000 A 
ENDBRANCH   1  23
TORSDOF 2
