REMARK  Name = ZINC08448837
REMARK  8 active torsions:
REMARK  status: ('A' for Active; 'I' for Inactive)
REMARK    1  A    between atoms: C_1  and  C_2
REMARK    2  A    between atoms: C_5  and  C_8
REMARK    3  A    between atoms: C_8  and  O_10
REMARK    4  A    between atoms: O_10  and  C_11
REMARK    5  A    between atoms: C_12  and  O_33
REMARK    6  A    between atoms: C_14  and  C_18
REMARK    7  A    between atoms: C_29  and  N_58
REMARK    8  A    between atoms: O_33  and  C_34
REMARK                            x       y       z     vdW  Elec       q    Type
REMARK                         _______ _______ _______ _____ _____    ______ ____
ROOT
ATOM      1  C   UNL     1      -6.522   5.517   3.465  0.00  0.00    +0.187 A 
ATOM      2  C   UNL     1      -5.531   5.256   4.407  0.00  0.00    +0.164 A 
ATOM      3  C   UNL     1      -5.117   3.953   4.629  0.00  0.00    +0.056 A 
ATOM      4  C   UNL     1      -5.687   2.915   3.917  0.00  0.00    -0.005 A 
ATOM      5  C   UNL     1      -6.668   3.173   2.978  0.00  0.00    +0.026 A 
ATOM      6  C   UNL     1      -7.090   4.471   2.754  0.00  0.00    +0.064 A 
ATOM      7 BR   UNL     1      -8.437   4.820   1.472  0.00  0.00    -0.046 Br
ENDROOT
BRANCH   4   8
ATOM      8  C   UNL     1      -5.235   1.498   4.160  0.00  0.00    +0.190 C 
ATOM      9  N   UNL     1      -5.425   0.713   2.927  0.00  0.00    -0.316 N 
ATOM     10  C   UNL     1      -4.438   0.806   1.980  0.00  0.00    +0.080 A 
ATOM     11  C   UNL     1      -3.119   1.176   2.285  0.00  0.00    +0.068 A 
ATOM     12  C   UNL     1      -2.199   1.215   1.162  0.00  0.00    -0.027 A 
ATOM     13  C   UNL     1      -2.729   0.900  -0.042  0.00  0.00    -0.021 A 
ATOM     14  S   UNL     1      -4.432   0.542   0.288  0.00  0.00    -0.080 S 
ATOM     15  C   UNL     1      -2.005   0.868  -1.352  0.00  0.00    -0.036 C 
ATOM     16  C   UNL     1      -0.013   1.086   0.008  0.00  0.00    -0.074 C 
ATOM     17  C   UNL     1      -0.724   1.577   1.272  0.00  0.00    +0.018 C 
ATOM     18  C   UNL     1       0.117   1.428  -2.386  0.00  0.00    -0.096 C 
ATOM     19  C   UNL     1      -2.803   1.475   3.701  0.00  0.00    +0.248 C 
ATOM     20  O   UNL     1      -1.660   1.682   4.065  0.00  0.00    -0.270 OA
ATOM     21  N   UNL     1      -3.834   1.507   4.571  0.00  0.00    -0.289 N 
ATOM     22  H   UNL     1      -6.209   0.157   2.793  0.00  0.00    +0.149 HD
ATOM     23  H   UNL     1      -3.634   1.539   5.519  0.00  0.00    +0.151 HD
ATOM     24  N   UNL     1      -0.725   1.596  -1.182  0.00  0.00    +0.381 N 
ATOM     25  H   UNL     1      -0.923   2.595  -1.050  0.00  0.00    -0.082 HD
ENDBRANCH   4   8
BRANCH   2  26
ATOM     26  O   UNL     1      -4.971   6.278   5.107  0.00  0.00    -0.491 OA
ATOM     27  C   UNL     1      -3.961   5.936   6.058  0.00  0.00    +0.277 C 
ENDBRANCH   2  26
BRANCH   1  28
ATOM     28  O   UNL     1      -6.932   6.795   3.243  0.00  0.00    -0.417 OA
BRANCH  28  29
ATOM     29  C   UNL     1      -6.277   7.491   2.293  0.00  0.00    +0.345 C 
ATOM     30  O   UNL     1      -5.366   6.972   1.681  0.00  0.00    -0.245 OA
BRANCH  29  35
ATOM     31  C   UNL     1      -7.801  12.918   1.140  0.00  0.00    +0.044 C 
ATOM     32  C   UNL     1      -7.402  11.496   1.442  0.00  0.00    -0.050 A 
ATOM     33  C   UNL     1      -6.362  10.909   0.743  0.00  0.00    +0.004 A 
ATOM     34  C   UNL     1      -5.992   9.608   1.014  0.00  0.00    +0.015 A 
ATOM     35  C   UNL     1      -6.668   8.884   1.998  0.00  0.00    +0.059 A 
ATOM     36  C   UNL     1      -7.720   9.481   2.696  0.00  0.00    +0.015 A 
ATOM     37  C   UNL     1      -8.076  10.784   2.418  0.00  0.00    +0.004 A 
ENDBRANCH  29  35
ENDBRANCH  28  29
ENDBRANCH   1  28
TORSDOF 5
