REMARK  Name = ZINC11559015
REMARK  6 active torsions:
REMARK  status: ('A' for Active; 'I' for Inactive)
REMARK    1  A    between atoms: C_4  and  N_23
REMARK    2  A    between atoms: C_5  and  N_7
REMARK    3  A    between atoms: N_7  and  C_8
REMARK    4  A    between atoms: C_8  and  C_9
REMARK    5  A    between atoms: C_9  and  C_10
REMARK    6  A    between atoms: N_12  and  C_13
REMARK                            x       y       z     vdW  Elec       q    Type
REMARK                         _______ _______ _______ _____ _____    ______ ____
ROOT
ATOM      1  C   UNL     1      -0.172   0.958  -2.467  0.00  0.00    +0.215 C 
ATOM      2  O   UNL     1       0.694   0.116  -2.365  0.00  0.00    -0.276 OA
ATOM      3  N   UNL     1      -0.619   1.322  -3.686  0.00  0.00    -0.310 N 
ATOM      4  H   UNL     1      -1.312   1.995  -3.767  0.00  0.00    +0.149 HD
ENDROOT
BRANCH   3   5
ATOM      5  C   UNL     1      -0.057   0.699  -4.887  0.00  0.00    +0.035 C 
ATOM      6  C   UNL     1       1.447   0.973  -4.948  0.00  0.00    +0.029 C 
ATOM      7  C   UNL     1       2.034   0.322  -6.202  0.00  0.00    -0.008 C 
ATOM      8  C   UNL     1       1.358   0.908  -7.444  0.00  0.00    +0.007 C 
ATOM      9  C   UNL     1      -0.146   0.635  -7.383  0.00  0.00    -0.008 C 
ATOM     10  C   UNL     1      -0.733   1.285  -6.128  0.00  0.00    +0.029 C 
ATOM     11  C   UNL     1      -0.388  -0.875  -7.336  0.00  0.00    +0.007 C 
ATOM     12  C   UNL     1       0.287  -1.461  -6.094  0.00  0.00    -0.008 C 
ATOM     13  C   UNL     1       1.791  -1.188  -6.155  0.00  0.00    +0.007 C 
ATOM     14  C   UNL     1      -0.299  -0.811  -4.840  0.00  0.00    +0.029 C 
ENDBRANCH   3   5
BRANCH   1  15
ATOM     15  C   UNL     1      -0.750   1.599  -1.231  0.00  0.00    +0.114 C 
BRANCH  15  16
ATOM     16  C   UNL     1      -0.075   1.013   0.010  0.00  0.00    +0.111 C 
BRANCH  16  17
ATOM     17  N   UNL     1      -0.636   1.635   1.212  0.00  0.00    -0.342 N 
ATOM     18  H   UNL     1      -1.329   2.309   1.130  0.00  0.00    +0.146 HD
BRANCH  17  23
ATOM     19  C   UNL     1       1.360   0.021   3.841  0.00  0.00    +0.002 A 
ATOM     20  C   UNL     1       0.743   0.513   4.977  0.00  0.00    +0.002 A 
ATOM     21  C   UNL     1      -0.331   1.377   4.865  0.00  0.00    +0.034 A 
ATOM     22  C   UNL     1      -0.791   1.752   3.617  0.00  0.00    +0.147 A 
ATOM     23  C   UNL     1      -0.174   1.259   2.475  0.00  0.00    +0.058 A 
ATOM     24  C   UNL     1       0.901   0.387   2.591  0.00  0.00    +0.025 A 
BRANCH  22  25
ATOM     25  N   UNL     1      -1.940   2.676   3.498  0.00  0.00    +0.058 N 
ATOM     26  O   UNL     1      -2.066   3.596   4.287  0.00  0.00    -0.126 OA
ATOM     27  O   UNL     1      -2.760   2.517   2.612  0.00  0.00    -0.126 OA
ENDBRANCH  22  25
ENDBRANCH  17  23
ENDBRANCH  16  17
ENDBRANCH  15  16
ENDBRANCH   1  15
TORSDOF 6
