REMARK  Name = ZINC59170804
REMARK  5 active torsions:
REMARK  status: ('A' for Active; 'I' for Inactive)
REMARK    1  A    between atoms: C_1  and  C_2
REMARK    2  A    between atoms: C_7  and  N_8
REMARK    3  A    between atoms: C_10  and  C_20
REMARK    4  A    between atoms: C_15  and  O_19
REMARK    5  A    between atoms: C_20  and  N_22
REMARK                            x       y       z     vdW  Elec       q    Type
REMARK                         _______ _______ _______ _____ _____    ______ ____
ROOT
ATOM      1  N   UNL     1      -0.419   0.123   2.405  0.00  0.00    -0.325 N 
ATOM      2  C   UNL     1      -0.280  -0.616   3.485  0.00  0.00    +0.209 A 
ATOM      3  C   UNL     1      -0.170  -0.002   4.823  0.00  0.00    +0.064 A 
ATOM      4  C   UNL     1      -0.560  -0.770   5.911  0.00  0.00    +0.027 A 
ATOM      5  C   UNL     1      -1.004  -2.096   5.671  0.00  0.00    +0.018 A 
ATOM      6  C   UNL     1      -1.595  -2.843   6.700  0.00  0.00    +0.015 A 
ATOM      7  C   UNL     1      -2.057  -4.102   6.447  0.00  0.00    +0.046 A 
ATOM      8  C   UNL     1      -1.939  -4.655   5.174  0.00  0.00    +0.120 A 
ATOM      9  C   UNL     1      -1.340  -3.939   4.149  0.00  0.00    +0.092 A 
ATOM     10  C   UNL     1      -0.859  -2.663   4.390  0.00  0.00    +0.141 A 
ATOM     11  O   UNL     1      -0.238  -1.971   3.407  0.00  0.00    -0.439 OA
ATOM     12  H   UNL     1      -0.544   1.082   2.487  0.00  0.00    +0.169 HD
ENDROOT
BRANCH   1  19
ATOM     13  C   UNL     1      -2.538   0.721   0.609  0.00  0.00    +0.046 C 
ATOM     14  C   UNL     1      -1.403  -0.201   0.245  0.00  0.00    -0.027 A 
ATOM     15  C   UNL     1      -1.361  -0.787  -1.003  0.00  0.00    +0.005 A 
ATOM     16  C   UNL     1      -0.320  -1.634  -1.338  0.00  0.00    +0.000 A 
ATOM     17  C   UNL     1       0.687  -1.900  -0.426  0.00  0.00    +0.002 A 
ATOM     18  C   UNL     1       0.658  -1.320   0.825  0.00  0.00    +0.026 A 
ATOM     19  C   UNL     1      -0.387  -0.459   1.169  0.00  0.00    +0.045 A 
ENDBRANCH   1  19
BRANCH   8  20
ATOM     20  O   UNL     1      -2.413  -5.904   4.935  0.00  0.00    -0.507 OA
ATOM     21  H   UNL     1      -3.336  -5.926   4.646  0.00  0.00    +0.292 HD
ENDBRANCH   8  20
BRANCH   3  22
ATOM     22  C   UNL     1       0.332   1.368   4.996  0.00  0.00    +0.082 C 
ATOM     23  S   UNL     1       0.952   2.229   3.652  0.00  0.00    -0.035 S 
BRANCH  22  24
ATOM     24  N   UNL     1       0.305   1.948   6.212  0.00  0.00    -0.352 N 
ATOM     25  H   UNL     1      -0.046   1.460   6.974  0.00  0.00    +0.143 HD
ATOM     26  H   UNL     1       0.636   2.852   6.327  0.00  0.00    +0.143 HD
ENDBRANCH  22  24
ENDBRANCH   3  22
TORSDOF 4
