REMARK  Name = ZINC48766052
REMARK  6 active torsions:
REMARK  status: ('A' for Active; 'I' for Inactive)
REMARK    1  A    between atoms: C_1  and  C_2
REMARK    2  A    between atoms: C_3  and  C_11
REMARK    3  A    between atoms: C_7  and  N_8
REMARK    4  A    between atoms: C_11  and  O_13
REMARK    5  A    between atoms: O_13  and  C_14
REMARK    6  A    between atoms: C_14  and  C_15
REMARK                            x       y       z     vdW  Elec       q    Type
REMARK                         _______ _______ _______ _____ _____    ______ ____
ROOT
ATOM      1  C   UNL     1      -0.618   1.431  -0.072  0.00  0.00    +0.047 C 
ATOM      2  C   UNL     1      -0.285  -0.038  -0.038  0.00  0.00    -0.006 A 
ATOM      3  C   UNL     1      -0.361  -0.801  -1.205  0.00  0.00    +0.064 A 
ATOM      4  C   UNL     1      -0.050  -2.161  -1.164  0.00  0.00    +0.015 A 
ATOM      5  C   UNL     1       0.330  -2.743   0.028  0.00  0.00    +0.003 A 
ATOM      6  C   UNL     1       0.403  -1.982   1.181  0.00  0.00    +0.033 A 
ATOM      7  C   UNL     1       0.102  -0.631   1.146  0.00  0.00    +0.130 A 
ENDROOT
BRANCH   7   8
ATOM      8  N   UNL     1       0.189   0.177   2.383  0.00  0.00    +0.057 N 
ATOM      9  O   UNL     1       0.396  -0.363   3.445  0.00  0.00    -0.126 OA
ATOM     10  O   UNL     1       0.053   1.377   2.332  0.00  0.00    -0.126 OA
ENDBRANCH   7   8
BRANCH   3  11
ATOM     11  C   UNL     1      -0.769  -0.171  -2.477  0.00  0.00    +0.340 C 
ATOM     12  O   UNL     1      -0.934   1.031  -2.535  0.00  0.00    -0.245 OA
BRANCH  11  13
ATOM     13  O   UNL     1      -0.960  -0.930  -3.574  0.00  0.00    -0.456 OA
BRANCH  13  14
ATOM     14  C   UNL     1      -1.354  -0.255  -4.770  0.00  0.00    +0.275 C 
BRANCH  14  15
ATOM     15  C   UNL     1      -1.518  -1.258  -5.882  0.00  0.00    +0.028 A 
ATOM     16  C   UNL     1      -2.625  -1.948  -6.253  0.00  0.00    +0.016 A 
ATOM     17  C   UNL     1      -2.542  -2.826  -7.317  0.00  0.00    +0.023 A 
ATOM     18  C   UNL     1      -1.356  -2.972  -7.959  0.00  0.00    +0.055 A 
ATOM     19  S   UNL     1      -0.308  -1.840  -7.059  0.00  0.00    -0.083 S 
ATOM     20 BR   UNL     1      -0.925  -4.080  -9.429  0.00  0.00    -0.043 Br
ENDBRANCH  14  15
ENDBRANCH  13  14
ENDBRANCH  11  13
ENDBRANCH   3  11
TORSDOF 5
