REMARK  Name = ZINC34774191
REMARK  7 active torsions:
REMARK  status: ('A' for Active; 'I' for Inactive)
REMARK    1  A    between atoms: C_1  and  C_2
REMARK    2  A    between atoms: C_2  and  C_3
REMARK    3  A    between atoms: C_3  and  S_4
REMARK    4  A    between atoms: S_4  and  C_5
REMARK    5  A    between atoms: C_9  and  C_14
REMARK    6  A    between atoms: N_23  and  C_26
REMARK    7  A    between atoms: C_26  and  C_27
REMARK                            x       y       z     vdW  Elec       q    Type
REMARK                         _______ _______ _______ _____ _____    ______ ____
ROOT
ATOM      1  C   UNL     1       1.291  -2.680  -3.146  0.00  0.00    +0.191 A 
ATOM      2  N   UNL     1       1.429  -3.950  -3.512  0.00  0.00    -0.206 NA
ATOM      3  C   UNL     1       1.931  -4.290  -4.687  0.00  0.00    +0.134 A 
ATOM      4  C   UNL     1       2.337  -3.273  -5.593  0.00  0.00    +0.055 A 
ATOM      5  C   UNL     1       2.910  -3.395  -6.930  0.00  0.00    +0.002 A 
ATOM      6  C   UNL     1       3.220  -2.267  -7.611  0.00  0.00    +0.056 A 
ATOM      7  S   UNL     1       2.756  -0.963  -6.488  0.00  0.00    -0.076 S 
ATOM      8  C   UNL     1       2.161  -1.950  -5.141  0.00  0.00    +0.115 A 
ATOM      9  N   UNL     1       1.648  -1.690  -3.953  0.00  0.00    -0.215 NA
ATOM     10  N   UNL     1       2.059  -5.624  -5.031  0.00  0.00    -0.318 N 
ATOM     11  C   UNL     1       3.109  -6.462  -4.431  0.00  0.00    +0.088 C 
ATOM     12  C   UNL     1       2.461  -7.745  -3.898  0.00  0.00    -0.059 C 
ATOM     13  N   UNL     1       1.708  -8.396  -4.977  0.00  0.00    +0.384 N 
ATOM     14  C   UNL     1       0.595  -7.537  -5.399  0.00  0.00    -0.059 C 
ATOM     15  C   UNL     1       1.146  -6.246  -6.003  0.00  0.00    +0.088 C 
ATOM     16  H   UNL     1       2.321  -8.560  -5.762  0.00  0.00    -0.081 HD
ENDROOT
BRANCH   5  17
ATOM     17  C   UNL     1       3.150  -4.729  -7.531  0.00  0.00    -0.017 A 
ATOM     18  C   UNL     1       4.003  -5.636  -6.904  0.00  0.00    +0.008 A 
ATOM     19  C   UNL     1       4.221  -6.876  -7.467  0.00  0.00    +0.001 A 
ATOM     20  C   UNL     1       3.595  -7.221  -8.652  0.00  0.00    +0.000 A 
ATOM     21  C   UNL     1       2.748  -6.325  -9.279  0.00  0.00    +0.001 A 
ATOM     22  C   UNL     1       2.517  -5.084  -8.722  0.00  0.00    +0.008 A 
ENDBRANCH   5  17
BRANCH   1  23
ATOM     23  S   UNL     1       0.614  -2.305  -1.564  0.00  0.00    -0.086 S 
BRANCH  23  24
ATOM     24  C   UNL     1       0.608  -0.492  -1.508  0.00  0.00    +0.077 C 
BRANCH  24  26
ATOM     25  C   UNL     1       0.031   1.504  -0.120  0.00  0.00    +0.004 C 
ATOM     26  C   UNL     1       0.036  -0.025  -0.168  0.00  0.00    +0.008 C 
ENDBRANCH  24  26
ENDBRANCH  23  24
ENDBRANCH   1  23
BRANCH  13  27
ATOM     27  C   UNL     1       1.179  -9.680  -4.497  0.00  0.00    -0.041 C 
BRANCH  27  28
ATOM     28  C   UNL     1       0.512 -10.406  -5.636  0.00  0.00    -0.046 A 
ATOM     29  C   UNL     1      -0.864 -10.370  -5.767  0.00  0.00    +0.003 A 
ATOM     30  C   UNL     1      -1.476 -11.036  -6.812  0.00  0.00    +0.000 A 
ATOM     31  C   UNL     1      -0.714 -11.739  -7.726  0.00  0.00    +0.001 A 
ATOM     32  C   UNL     1       0.662 -11.775  -7.596  0.00  0.00    +0.020 A 
ATOM     33  C   UNL     1       1.276 -11.104  -6.554  0.00  0.00    +0.042 A 
ATOM     34 CL   UNL     1       3.004 -11.144  -6.394  0.00  0.00    -0.083 Cl
ENDBRANCH  27  28
ENDBRANCH  13  27
TORSDOF 6
