REMARK  Name = ZINC36645736
REMARK  9 active torsions:
REMARK  status: ('A' for Active; 'I' for Inactive)
REMARK    1  A    between atoms: C_1  and  C_2
REMARK    2  A    between atoms: C_4  and  C_31
REMARK    3  A    between atoms: C_8  and  N_30
REMARK    4  A    between atoms: C_9  and  C_11
REMARK    5  A    between atoms: C_11  and  O_13
REMARK    6  A    between atoms: O_13  and  C_14
REMARK    7  A    between atoms: C_14  and  C_15
REMARK    8  A    between atoms: N_17  and  C_18
REMARK    9  A    between atoms: C_19  and  C_27
REMARK                            x       y       z     vdW  Elec       q    Type
REMARK                         _______ _______ _______ _____ _____    ______ ____
ROOT
ATOM      1  C   UNL     1       3.599  -1.324   5.949  0.00  0.00    +0.328 C 
ENDROOT
BRANCH   1   2
ATOM      2  C   UNL     1       4.308  -2.539   6.491  0.00  0.00    +0.255 C 
ATOM      3  O   UNL     1       4.064  -3.636   6.035  0.00  0.00    -0.272 OA
ATOM      4  N   UNL     1       5.212  -2.406   7.481  0.00  0.00    -0.277 N 
ATOM      5  H   UNL     1       5.407  -1.528   7.845  0.00  0.00    +0.155 HD
BRANCH   4   6
ATOM      6  C   UNL     1       5.864  -3.523   7.980  0.00  0.00    +0.084 A 
ATOM      7  C   UNL     1       6.811  -3.578   8.991  0.00  0.00    +0.068 A 
ATOM      8  C   UNL     1       7.347  -4.884   9.329  0.00  0.00    -0.023 A 
ATOM      9  C   UNL     1       6.838  -5.897   8.595  0.00  0.00    -0.004 A 
ATOM     10  S   UNL     1       5.683  -5.123   7.502  0.00  0.00    -0.077 S 
ATOM     11  C   UNL     1       7.187  -7.350   8.702  0.00  0.00    +0.043 C 
ATOM     12  C   UNL     1       8.485  -7.475   9.513  0.00  0.00    +0.005 C 
ATOM     13  C   UNL     1       8.364  -6.621  10.778  0.00  0.00    +0.005 C 
ATOM     14  C   UNL     1       8.389  -5.136  10.409  0.00  0.00    +0.037 C 
BRANCH   7  15
ATOM     15  C   UNL     1       7.253  -2.366   9.689  0.00  0.00    +0.244 C 
ATOM     16  O   UNL     1       6.669  -1.994  10.690  0.00  0.00    -0.270 OA
ATOM     17  N   UNL     1       8.305  -1.665   9.221  0.00  0.00    -0.325 N 
ATOM     18  H   UNL     1       8.770  -1.962   8.424  0.00  0.00    +0.145 HD
ATOM     19  H   UNL     1       8.597  -0.864   9.683  0.00  0.00    +0.145 HD
ENDBRANCH   7  15
ENDBRANCH   4   6
ENDBRANCH   1   2
BRANCH   1  20
ATOM     20  O   UNL     1       2.697  -1.721   4.914  0.00  0.00    -0.451 OA
BRANCH  20  21
ATOM     21  C   UNL     1       1.979  -0.745   4.319  0.00  0.00    +0.348 C 
ATOM     22  O   UNL     1       2.116   0.412   4.672  0.00  0.00    -0.244 OA
BRANCH  21  31
ATOM     23  C   UNL     1      -1.696   1.372   0.766  0.00  0.00    +0.044 C 
ATOM     24  C   UNL     1      -1.521  -0.123   0.688  0.00  0.00    -0.037 A 
ATOM     25  C   UNL     1      -2.240  -0.864  -0.221  0.00  0.00    +0.025 A 
ATOM     26  C   UNL     1      -2.078  -2.239  -0.290  0.00  0.00    +0.014 A 
ATOM     27  N   UNL     1      -1.231  -2.853   0.513  0.00  0.00    -0.353 N 
ATOM     28  C   UNL     1      -0.520  -2.189   1.399  0.00  0.00    +0.088 A 
ATOM     29  C   UNL     1      -0.609  -0.786   1.546  0.00  0.00    +0.030 A 
ATOM     30  C   UNL     1       0.254  -0.216   2.569  0.00  0.00    +0.055 A 
ATOM     31  C   UNL     1       1.067  -1.067   3.287  0.00  0.00    +0.119 A 
ATOM     32  S   UNL     1       0.683  -2.671   2.612  0.00  0.00    -0.062 S 
ATOM     33  C   UNL     1      -2.873  -3.037  -1.291  0.00  0.00    +0.063 C 
ATOM     34  H   UNL     1      -1.131  -3.816   0.450  0.00  0.00    +0.166 HD
BRANCH  30  35
ATOM     35  N   UNL     1       0.258   1.149   2.816  0.00  0.00    -0.356 N 
ATOM     36  H   UNL     1       0.106   1.774   2.090  0.00  0.00    +0.142 HD
ATOM     37  H   UNL     1       0.414   1.479   3.715  0.00  0.00    +0.142 HD
ENDBRANCH  30  35
ENDBRANCH  21  31
ENDBRANCH  20  21
ENDBRANCH   1  20
TORSDOF 7
