REMARK  Name = ZINC14031729
REMARK  10 active torsions:
REMARK  status: ('A' for Active; 'I' for Inactive)
REMARK    1  A    between atoms: C_1  and  C_2
REMARK    2  A    between atoms: C_2  and  C_4
REMARK    3  A    between atoms: C_2  and  O_25
REMARK    4  A    between atoms: N_6  and  N_7
REMARK    5  A    between atoms: N_7  and  C_8
REMARK    6  A    between atoms: C_8  and  N_10
REMARK    7  A    between atoms: C_11  and  C_13
REMARK    8  A    between atoms: C_15  and  N_22
REMARK    9  A    between atoms: C_17  and  N_19
REMARK   10  A    between atoms: O_25  and  C_26
REMARK                            x       y       z     vdW  Elec       q    Type
REMARK                         _______ _______ _______ _____ _____    ______ ____
ROOT
ATOM      1  N   UNL     1       2.504  -0.249  -2.808  0.00  0.00    -0.245 N 
ATOM      2  H   UNL     1       1.967  -0.625  -3.523  0.00  0.00    +0.172 HD
ENDROOT
BRANCH   1   5
ATOM      3  C   UNL     1       0.626  -0.281  -1.345  0.00  0.00    +0.270 C 
ATOM      4  O   UNL     1      -0.045  -0.752  -2.239  0.00  0.00    -0.270 OA
ATOM      5  N   UNL     1       1.927   0.002  -1.556  0.00  0.00    -0.232 N 
ATOM      6  H   UNL     1       2.463   0.379  -0.841  0.00  0.00    +0.173 HD
BRANCH   3   8
ATOM      7  C   UNL     1       0.004   1.494   0.270  0.00  0.00    +0.062 C 
ATOM      8  C   UNL     1       0.005  -0.012   0.001  0.00  0.00    +0.257 C 
BRANCH   8   9
ATOM      9  O   UNL     1      -1.339  -0.499   0.012  0.00  0.00    -0.480 OA
BRANCH   9  10
ATOM     10  C   UNL     1      -1.869  -0.818   1.222  0.00  0.00    +0.122 A 
ATOM     11  C   UNL     1      -1.143  -0.550   2.386  0.00  0.00    +0.046 A 
ATOM     12  C   UNL     1      -1.647  -0.857   3.611  0.00  0.00    +0.012 A 
ATOM     13  C   UNL     1      -2.917  -1.453   3.713  0.00  0.00    -0.018 A 
ATOM     14  C   UNL     1      -3.468  -1.783   4.962  0.00  0.00    +0.008 A 
ATOM     15  C   UNL     1      -4.700  -2.359   5.024  0.00  0.00    +0.001 A 
ATOM     16  C   UNL     1      -5.426  -2.627   3.865  0.00  0.00    +0.001 A 
ATOM     17  C   UNL     1      -4.924  -2.321   2.638  0.00  0.00    +0.008 A 
ATOM     18  C   UNL     1      -3.655  -1.725   2.534  0.00  0.00    -0.014 A 
ATOM     19  C   UNL     1      -3.107  -1.391   1.284  0.00  0.00    +0.054 A 
ENDBRANCH   9  10
ENDBRANCH   8   9
ENDBRANCH   3   8
ENDBRANCH   1   5
BRANCH   1  20
ATOM     20  C   UNL     1       3.804   0.034  -3.019  0.00  0.00    +0.153 C 
ATOM     21  S   UNL     1       4.510  -0.272  -4.549  0.00  0.00    -0.017 S 
BRANCH  20  22
ATOM     22  N   UNL     1       4.550   0.558  -2.026  0.00  0.00    -0.263 N 
ATOM     23  C   UNL     1       5.851   0.841  -2.237  0.00  0.00    +0.250 C 
ATOM     24  O   UNL     1       6.351   0.624  -3.323  0.00  0.00    -0.270 OA
ATOM     25  H   UNL     1       4.150   0.731  -1.159  0.00  0.00    +0.157 HD
BRANCH  23  26
ATOM     26  C   UNL     1       6.668   1.415  -1.148  0.00  0.00    +0.041 A 
ATOM     27  C   UNL     1       6.098   1.660   0.103  0.00  0.00    +0.046 A 
ATOM     28  C   UNL     1       6.866   2.196   1.115  0.00  0.00    +0.129 A 
ATOM     29  C   UNL     1       8.200   2.490   0.893  0.00  0.00    +0.065 A 
ATOM     30  C   UNL     1       8.772   2.249  -0.344  0.00  0.00    +0.129 A 
ATOM     31  C   UNL     1       8.016   1.709  -1.363  0.00  0.00    +0.046 A 
BRANCH  30  32
ATOM     32  N   UNL     1      10.199   2.568  -0.572  0.00  0.00    +0.057 N 
ATOM     33  O   UNL     1      10.864   3.037   0.322  0.00  0.00    -0.126 OA
ATOM     34  O   UNL     1      10.700   2.358  -1.652  0.00  0.00    -0.126 OA
ENDBRANCH  30  32
BRANCH  28  35
ATOM     35  N   UNL     1       6.263   2.457   2.441  0.00  0.00    +0.057 N 
ATOM     36  O   UNL     1       5.098   2.201   2.636  0.00  0.00    -0.126 OA
ATOM     37  O   UNL     1       6.936   2.926   3.329  0.00  0.00    -0.126 OA
ENDBRANCH  28  35
ENDBRANCH  23  26
ENDBRANCH  20  22
ENDBRANCH   1  20
TORSDOF 9
