REMARK  Name = ZINC39722396
REMARK  7 active torsions:
REMARK  status: ('A' for Active; 'I' for Inactive)
REMARK    1  A    between atoms: C_4  and  C_7
REMARK    2  A    between atoms: C_7  and  N_8
REMARK    3  A    between atoms: C_9  and  C_32
REMARK    4  A    between atoms: C_13  and  S_15
REMARK    5  A    between atoms: S_15  and  C_16
REMARK    6  A    between atoms: C_16  and  C_17
REMARK    7  A    between atoms: C_25  and  C_29
REMARK                            x       y       z     vdW  Elec       q    Type
REMARK                         _______ _______ _______ _____ _____    ______ ____
ROOT
ATOM      1  N   UNL     1       4.163  -0.954   1.212  0.00  0.00    -0.253 NA
ATOM      2  C   UNL     1       5.315  -1.881   1.372  0.00  0.00    +0.174 C 
ATOM      3  N   UNL     1       5.843  -1.523   2.714  0.00  0.00    -0.233 NA
ATOM      4  N   UNL     1       5.694  -0.067   2.790  0.00  0.00    -0.229 NA
ATOM      5  C   UNL     1       4.626   0.305   1.841  0.00  0.00    +0.200 C 
ATOM      6  H   UNL     1       6.811  -1.793   2.806  0.00  0.00    +0.143 HD
ATOM      7  H   UNL     1       6.560   0.398   2.560  0.00  0.00    +0.143 HD
ENDROOT
BRANCH   2   8
ATOM      8  C   UNL     1       4.853  -3.315   1.341  0.00  0.00    +0.020 A 
ATOM      9  C   UNL     1       3.558  -3.632   1.702  0.00  0.00    +0.009 A 
ATOM     10  C   UNL     1       3.134  -4.948   1.674  0.00  0.00    +0.001 A 
ATOM     11  C   UNL     1       4.006  -5.948   1.284  0.00  0.00    +0.003 A 
ATOM     12  C   UNL     1       5.302  -5.633   0.921  0.00  0.00    +0.039 A 
ATOM     13  C   UNL     1       5.726  -4.314   0.944  0.00  0.00    +0.129 A 
ATOM     14  F   UNL     1       6.991  -4.005   0.585  0.00  0.00    -0.205 F 
ENDBRANCH   2   8
BRANCH   1  15
ATOM     15  C   UNL     1       3.847  -0.747  -0.208  0.00  0.00    +0.123 C 
BRANCH  15  19
ATOM     16  C   UNL     1       0.104   1.283  -0.553  0.00  0.00    +0.000 A 
ATOM     17  C   UNL     1       1.278   2.008  -0.470  0.00  0.00    +0.000 A 
ATOM     18  C   UNL     1       2.489   1.351  -0.358  0.00  0.00    +0.005 A 
ATOM     19  C   UNL     1       2.526  -0.031  -0.329  0.00  0.00    -0.033 A 
ATOM     20  C   UNL     1       1.352  -0.755  -0.411  0.00  0.00    +0.005 A 
ATOM     21  C   UNL     1       0.141  -0.099  -0.524  0.00  0.00    +0.000 A 
ENDBRANCH  15  19
ENDBRANCH   1  15
BRANCH   5  22
ATOM     22  S   UNL     1       3.255   1.097   2.728  0.00  0.00    -0.117 S 
BRANCH  22  23
ATOM     23  C   UNL     1       2.762  -0.136   3.964  0.00  0.00    +0.146 C 
BRANCH  23  24
ATOM     24  C   UNL     1       1.615   0.403   4.780  0.00  0.00    +0.120 A 
ATOM     25  N   UNL     1       1.105  -0.378   5.768  0.00  0.00    -0.310 N 
ATOM     26  H   UNL     1       1.482  -1.257   5.929  0.00  0.00    +0.170 HD
ATOM     27  C   UNL     1       0.076   0.060   6.530  0.00  0.00    +0.259 A 
ATOM     28  O   UNL     1      -0.391  -0.629   7.418  0.00  0.00    -0.267 OA
ATOM     29  C   UNL     1      -0.458   1.403   6.242  0.00  0.00    +0.065 A 
ATOM     30  C   UNL     1      -1.516   1.943   6.970  0.00  0.00    +0.016 A 
ATOM     31  C   UNL     1      -1.980   3.193   6.670  0.00  0.00    +0.016 A 
ATOM     32  C   UNL     1      -1.401   3.938   5.635  0.00  0.00    +0.065 A 
ATOM     33  C   UNL     1      -0.345   3.416   4.896  0.00  0.00    +0.043 A 
ATOM     34  C   UNL     1       0.137   2.140   5.195  0.00  0.00    +0.079 A 
ATOM     35  N   UNL     1       1.169   1.591   4.507  0.00  0.00    -0.233 NA
BRANCH  32  36
ATOM     36  C   UNL     1      -1.917   5.288   5.325  0.00  0.00    +0.387 C 
ATOM     37  O   UNL     1      -2.845   5.751   5.971  0.00  0.00    -0.241 OA
ATOM     38  O   UNL     1      -1.414   5.942   4.422  0.00  0.00    -0.241 OA
ENDBRANCH  32  36
ENDBRANCH  23  24
ENDBRANCH  22  23
ENDBRANCH   5  22
TORSDOF 7
