REMARK  Name = ZINC09229455
REMARK  7 active torsions:
REMARK  status: ('A' for Active; 'I' for Inactive)
REMARK    1  A    between atoms: C_9  and  O_12
REMARK    2  A    between atoms: O_12  and  C_13
REMARK    3  A    between atoms: C_13  and  C_14
REMARK    4  A    between atoms: N_16  and  N_17
REMARK    5  A    between atoms: C_18  and  C_20
REMARK    6  A    between atoms: C_21  and  C_22
REMARK    7  A    between atoms: C_25  and  N_28
REMARK                            x       y       z     vdW  Elec       q    Type
REMARK                         _______ _______ _______ _____ _____    ______ ____
ROOT
ATOM      1  C   UNL     1       2.119   9.458   0.028  0.00  0.00    +0.267 C 
ATOM      2  O   UNL     1       0.994   9.911   0.041  0.00  0.00    -0.271 OA
ATOM      3  N   UNL     1       3.180  10.290   0.021  0.00  0.00    -0.231 N 
ATOM      4  H   UNL     1       4.079   9.928   0.011  0.00  0.00    +0.173 HD
ENDROOT
BRANCH   3   5
ATOM      5  N   UNL     1       2.982  11.677   0.030  0.00  0.00    -0.231 N 
ATOM      6  C   UNL     1       4.043  12.508   0.024  0.00  0.00    +0.253 C 
ATOM      7  O   UNL     1       5.172  12.054   0.011  0.00  0.00    -0.269 OA
ATOM      8  H   UNL     1       2.083  12.039   0.040  0.00  0.00    +0.173 HD
BRANCH   6   9
ATOM      9  C   UNL     1       3.837  13.958   0.032  0.00  0.00    +0.069 C 
ATOM     10  C   UNL     1       4.898  14.789   0.026  0.00  0.00    +0.013 C 
BRANCH  10  11
ATOM     11  C   UNL     1       4.691  16.247   0.035  0.00  0.00    -0.025 A 
ATOM     12  C   UNL     1       3.395  16.772   0.044  0.00  0.00    +0.010 A 
ATOM     13  C   UNL     1       3.210  18.139   0.058  0.00  0.00    +0.033 A 
ATOM     14  C   UNL     1       4.301  18.989   0.052  0.00  0.00    +0.126 A 
ATOM     15  C   UNL     1       5.587  18.477   0.037  0.00  0.00    +0.033 A 
ATOM     16  C   UNL     1       5.789  17.113   0.029  0.00  0.00    +0.010 A 
BRANCH  14  17
ATOM     17  N   UNL     1       4.093  20.455   0.061  0.00  0.00    +0.056 N 
ATOM     18  O   UNL     1       5.052  21.206   0.055  0.00  0.00    -0.126 OA
ATOM     19  O   UNL     1       2.963  20.909   0.074  0.00  0.00    -0.126 OA
ENDBRANCH  14  17
ENDBRANCH  10  11
ENDBRANCH   6   9
ENDBRANCH   3   5
BRANCH   1  20
ATOM     20  C   UNL     1       2.331   7.966   0.019  0.00  0.00    +0.326 C 
BRANCH  20  21
ATOM     21  O   UNL     1       1.064   7.305   0.028  0.00  0.00    -0.482 OA
BRANCH  21  30
ATOM     22  C   UNL     1      -0.013   1.076   0.008  0.00  0.00    +0.001 A 
ATOM     23  C   UNL     1      -1.235   1.746   0.017  0.00  0.00    +0.001 A 
ATOM     24  C   UNL     1      -1.288   3.105   0.030  0.00  0.00    +0.010 A 
ATOM     25  C   UNL     1      -0.095   3.849   0.023  0.00  0.00    -0.000 A 
ATOM     26  C   UNL     1       1.148   3.167   0.008  0.00  0.00    -0.017 A 
ATOM     27  C   UNL     1       1.163   1.762   0.000  0.00  0.00    +0.008 A 
ATOM     28  C   UNL     1       2.343   3.907  -0.000  0.00  0.00    +0.012 A 
ATOM     29  C   UNL     1       2.299   5.266   0.006  0.00  0.00    +0.047 A 
ATOM     30  C   UNL     1       1.077   5.946   0.021  0.00  0.00    +0.136 A 
ATOM     31  C   UNL     1      -0.113   5.253   0.029  0.00  0.00    +0.067 A 
ATOM     32 BR   UNL     1      -1.758   6.186   0.049  0.00  0.00    -0.046 Br
ENDBRANCH  21  30
ENDBRANCH  20  21
ENDBRANCH   1  20
TORSDOF 7
