REMARK  Name = ZINC11968477
REMARK  9 active torsions:
REMARK  status: ('A' for Active; 'I' for Inactive)
REMARK    1  A    between atoms: C_1  and  C_2
REMARK    2  A    between atoms: C_2  and  C_3
REMARK    3  A    between atoms: C_3  and  C_14
REMARK    4  A    between atoms: N_6  and  C_10
REMARK    5  A    between atoms: C_10  and  C_11
REMARK    6  A    between atoms: C_11  and  C_13
REMARK    7  A    between atoms: C_19  and  C_20
REMARK    8  A    between atoms: C_19  and  N_62
REMARK    9  A    between atoms: C_21  and  C_30
REMARK                            x       y       z     vdW  Elec       q    Type
REMARK                         _______ _______ _______ _____ _____    ______ ____
ROOT
ATOM      1  C   UNL     1      -0.755   1.594  -1.231  0.00  0.00    +0.018 C 
ATOM      2  C   UNL     1      -0.013   1.086   0.008  0.00  0.00    -0.013 C 
ATOM      3  C   UNL     1      -0.731   1.580   1.266  0.00  0.00    -0.078 C 
ATOM      4  C   UNL     1      -2.861   1.601   0.109  0.00  0.00    -0.078 C 
ATOM      5  C   UNL     1      -2.206   1.108  -1.183  0.00  0.00    -0.013 C 
ATOM      6  N   UNL     1      -2.114   1.058   1.264  0.00  0.00    +0.383 N 
ATOM      7  H   UNL     1      -2.084   0.034   1.189  0.00  0.00    -0.081 HD
ENDROOT
BRANCH   1   8
ATOM      8  C   UNL     1      -0.075   1.054  -2.491  0.00  0.00    +0.115 C 
ATOM      9  C   UNL     1       1.371   1.502  -2.551  0.00  0.00    +0.247 C 
ATOM     10  O   UNL     1       1.784   2.641  -2.604  0.00  0.00    -0.273 OA
ATOM     11  N   UNL     1       2.104   0.371  -2.531  0.00  0.00    -0.220 N 
ATOM     12  C   UNL     1       1.330  -0.718  -2.468  0.00  0.00    +0.310 C 
ATOM     13  O   UNL     1       1.762  -1.853  -2.439  0.00  0.00    -0.252 OA
ATOM     14  N   UNL     1       0.019  -0.415  -2.440  0.00  0.00    -0.285 N 
ATOM     15  H   UNL     1      -0.720  -1.042  -2.395  0.00  0.00    +0.151 HD
BRANCH   8  17
ATOM     16  C   UNL     1      -0.206   0.852  -4.978  0.00  0.00    +0.006 C 
ATOM     17  C   UNL     1      -0.830   1.505  -3.743  0.00  0.00    +0.032 C 
ENDBRANCH   8  17
BRANCH  11  18
ATOM     18  C   UNL     1       3.568   0.338  -2.572  0.00  0.00    +0.148 C 
BRANCH  18  19
ATOM     19  C   UNL     1       4.112   0.379  -1.167  0.00  0.00    -0.062 C 
ATOM     20  C   UNL     1       4.416  -0.736  -0.550  0.00  0.00    +0.009 C 
ATOM     21  C   UNL     1       4.305   1.702  -0.472  0.00  0.00    +0.040 C 
ENDBRANCH  18  19
ENDBRANCH  11  18
ENDBRANCH   1   8
BRANCH   6  22
ATOM     22  C   UNL     1      -2.794   1.427   2.523  0.00  0.00    -0.021 C 
BRANCH  22  23
ATOM     23  C   UNL     1      -2.144   0.683   3.661  0.00  0.00    +0.047 A 
ATOM     24  C   UNL     1      -2.617  -0.580   4.021  0.00  0.00    +0.058 A 
ATOM     25  N   UNL     1      -2.062  -1.249   5.007  0.00  0.00    -0.249 NA
ATOM     26  C   UNL     1      -1.040  -0.710   5.680  0.00  0.00    +0.089 A 
ATOM     27  C   UNL     1      -0.429  -1.396   6.744  0.00  0.00    +0.030 A 
ATOM     28  C   UNL     1       0.609  -0.822   7.410  0.00  0.00    +0.002 A 
ATOM     29  C   UNL     1       1.078   0.442   7.054  0.00  0.00    +0.002 A 
ATOM     30  C   UNL     1       0.511   1.137   6.030  0.00  0.00    +0.030 A 
ATOM     31  C   UNL     1      -0.563   0.575   5.318  0.00  0.00    +0.089 A 
ATOM     32  N   UNL     1      -1.141   1.234   4.308  0.00  0.00    -0.250 NA
ATOM     33  C   UNL     1      -3.773  -1.186   3.267  0.00  0.00    +0.067 C 
ENDBRANCH  22  23
ENDBRANCH   6  22
TORSDOF 6
