REMARK  Name = ZINC08746775
REMARK  9 active torsions:
REMARK  status: ('A' for Active; 'I' for Inactive)
REMARK    1  A    between atoms: C_1  and  N_2
REMARK    2  A    between atoms: N_2  and  C_3
REMARK    3  A    between atoms: N_2  and  C_4
REMARK    4  A    between atoms: C_7  and  C_10
REMARK    5  A    between atoms: C_10  and  C_12
REMARK    6  A    between atoms: C_10  and  C_23
REMARK    7  A    between atoms: C_12  and  N_13
REMARK    8  A    between atoms: C_14  and  C_16
REMARK    9  A    between atoms: C_16  and  C_17
REMARK                            x       y       z     vdW  Elec       q    Type
REMARK                         _______ _______ _______ _____ _____    ______ ____
ROOT
ATOM      1  C   UNL     1       1.649   3.289   0.004  0.00  0.00    +0.068 C 
ENDROOT
BRANCH   1   2
ATOM      2  C   UNL     1       1.239   1.839   0.000  0.00  0.00    -0.013 A 
ATOM      3  C   UNL     1      -0.017   1.364   0.009  0.00  0.00    +0.088 A 
ATOM      4  N   UNL     1       0.002  -0.004   0.002  0.00  0.00    -0.360 N 
ATOM      5  H   UNL     1      -0.784  -0.572   0.007  0.00  0.00    +0.165 HD
ATOM      6  C   UNL     1       1.303  -0.455  -0.013  0.00  0.00    +0.047 A 
ATOM      7  C   UNL     1       2.135   0.680  -0.015  0.00  0.00    +0.003 A 
ATOM      8  C   UNL     1       3.522   0.527  -0.030  0.00  0.00    +0.010 A 
ATOM      9  C   UNL     1       4.066  -0.727  -0.043  0.00  0.00    +0.001 A 
ATOM     10  C   UNL     1       3.250  -1.850  -0.040  0.00  0.00    +0.002 A 
ATOM     11  C   UNL     1       1.878  -1.721  -0.026  0.00  0.00    +0.026 A 
ENDBRANCH   1   2
BRANCH   1  15
ATOM     12  C   UNL     1       0.064   5.226  -3.461  0.00  0.00    +0.029 A 
ATOM     13  C   UNL     1       1.436   5.185  -3.253  0.00  0.00    +0.023 A 
ATOM     14  C   UNL     1       1.945   4.559  -2.133  0.00  0.00    +0.006 A 
ATOM     15  C   UNL     1       1.090   3.972  -1.218  0.00  0.00    -0.038 A 
ATOM     16  C   UNL     1      -0.277   4.006  -1.425  0.00  0.00    +0.006 A 
ATOM     17  C   UNL     1      -0.793   4.636  -2.540  0.00  0.00    +0.023 A 
BRANCH  12  19
ATOM     18  C   UNL     1       0.450   6.482  -5.563  0.00  0.00    +0.129 C 
ATOM     19  N   UNL     1      -0.455   5.859  -4.593  0.00  0.00    -0.336 N 
ATOM     20  C   UNL     1      -1.903   5.902  -4.810  0.00  0.00    +0.129 C 
ENDBRANCH  12  19
ENDBRANCH   1  15
BRANCH   1  21
ATOM     21  C   UNL     1       1.106   3.970   1.262  0.00  0.00    +0.117 C 
BRANCH  21  22
ATOM     22  N   UNL     1       1.740   3.385   2.446  0.00  0.00    -0.314 N 
ATOM     23  C   UNL     1       1.414   3.831   3.675  0.00  0.00    +0.214 C 
ATOM     24  O   UNL     1       0.595   4.717   3.801  0.00  0.00    -0.276 OA
ATOM     25  H   UNL     1       2.395   2.676   2.345  0.00  0.00    +0.149 HD
BRANCH  23  26
ATOM     26  C   UNL     1       2.067   3.229   4.893  0.00  0.00    +0.103 C 
BRANCH  26  27
ATOM     27  C   UNL     1       1.524   3.910   6.151  0.00  0.00    +0.020 C 
ATOM     28  C   UNL     1       2.269   3.397   7.405  0.00  0.00    +0.012 C 
ATOM     29  C   UNL     1       1.127   3.365   8.447  0.00  0.00    +0.027 C 
ATOM     30  C   UNL     1      -0.136   3.226   7.629  0.00  0.00    -0.031 C 
ATOM     31  C   UNL     1       0.080   3.524   6.377  0.00  0.00    -0.027 C 
ENDBRANCH  26  27
ENDBRANCH  23  26
ENDBRANCH  21  22
ENDBRANCH   1  21
TORSDOF 7
