REMARK  Name = ZINC00856239
REMARK  8 active torsions:
REMARK  status: ('A' for Active; 'I' for Inactive)
REMARK    1  A    between atoms: C_1  and  O_2
REMARK    2  A    between atoms: O_2  and  C_3
REMARK    3  A    between atoms: C_8  and  C_9
REMARK    4  A    between atoms: C_12  and  C_22
REMARK    5  A    between atoms: C_15  and  C_17
REMARK    6  A    between atoms: C_17  and  C_18
REMARK    7  A    between atoms: C_18  and  C_19
REMARK    8  A    between atoms: C_23  and  C_35
REMARK                            x       y       z     vdW  Elec       q    Type
REMARK                         _______ _______ _______ _____ _____    ______ ____
ROOT
ATOM      1  C   UNL     1       0.057  -3.328  -0.380  0.00  0.00    +0.140 C 
ATOM      2  C   UNL     1       0.637  -3.401   1.047  0.00  0.00    +0.087 C 
ATOM      3  C   UNL     1       0.488  -4.856   1.427  0.00  0.00    +0.075 C 
ATOM      4  N   UNL     1      -0.056  -5.503   0.452  0.00  0.00    -0.181 NA
ATOM      5  N   UNL     1      -0.352  -4.713  -0.662  0.00  0.00    -0.185 N 
ATOM      6  C   UNL     1      -0.919  -5.146  -1.805  0.00  0.00    +0.236 C 
ATOM      7  O   UNL     1      -1.131  -4.366  -2.710  0.00  0.00    -0.274 OA
ENDROOT
BRANCH   3   8
ATOM      8  C   UNL     1       0.899  -5.444   2.709  0.00  0.00    +0.070 A 
ATOM      9  C   UNL     1      -0.054  -5.785   3.671  0.00  0.00    +0.005 A 
ATOM     10  C   UNL     1       0.412  -6.369   4.936  0.00  0.00    +0.008 A 
ATOM     11  C   UNL     1      -0.502  -6.729   5.932  0.00  0.00    +0.030 A 
ATOM     12  C   UNL     1      -0.048  -7.276   7.111  0.00  0.00    +0.042 A 
ATOM     13  C   UNL     1       1.313  -7.471   7.314  0.00  0.00    +0.022 A 
ATOM     14  C   UNL     1       2.225  -7.122   6.343  0.00  0.00    +0.028 A 
ATOM     15  C   UNL     1       1.788  -6.568   5.143  0.00  0.00    +0.050 A 
ATOM     16  N   UNL     1       2.701  -6.218   4.168  0.00  0.00    -0.322 N 
ATOM     17  H   UNL     1       3.646  -6.363   4.332  0.00  0.00    +0.169 HD
ATOM     18  C   UNL     1       2.316  -5.686   2.995  0.00  0.00    +0.259 A 
ATOM     19  O   UNL     1       3.155  -5.397   2.162  0.00  0.00    -0.267 OA
ATOM     20 CL   UNL     1      -1.179  -7.723   8.349  0.00  0.00    -0.084 Cl
BRANCH   9  21
ATOM     21  C   UNL     1      -1.493  -5.563   3.423  0.00  0.00    -0.016 A 
ATOM     22  C   UNL     1      -1.996  -4.264   3.324  0.00  0.00    +0.008 A 
ATOM     23  C   UNL     1      -3.341  -4.064   3.092  0.00  0.00    +0.001 A 
ATOM     24  C   UNL     1      -4.192  -5.148   2.958  0.00  0.00    +0.000 A 
ATOM     25  C   UNL     1      -3.700  -6.438   3.055  0.00  0.00    +0.001 A 
ATOM     26  C   UNL     1      -2.357  -6.652   3.281  0.00  0.00    +0.008 A 
ENDBRANCH   9  21
ENDBRANCH   3   8
BRANCH   1  32
ATOM     27  C   UNL     1      -0.952  -1.046  -0.629  0.00  0.00    +0.125 A 
ATOM     28  C   UNL     1      -2.050  -0.200  -0.672  0.00  0.00    +0.046 A 
ATOM     29  C   UNL     1      -3.322  -0.712  -0.502  0.00  0.00    +0.004 A 
ATOM     30  C   UNL     1      -3.501  -2.067  -0.290  0.00  0.00    +0.001 A 
ATOM     31  C   UNL     1      -2.408  -2.912  -0.246  0.00  0.00    +0.009 A 
ATOM     32  C   UNL     1      -1.134  -2.405  -0.421  0.00  0.00    +0.017 A 
BRANCH  27  34
ATOM     33  C   UNL     1       0.413   0.864  -1.006  0.00  0.00    +0.277 C 
ATOM     34  O   UNL     1       0.300  -0.545  -0.796  0.00  0.00    -0.495 OA
ENDBRANCH  27  34
ENDBRANCH   1  32
BRANCH   6  35
ATOM     35  C   UNL     1      -1.289  -6.598  -1.961  0.00  0.00    +0.109 C 
BRANCH  35  36
ATOM     36  C   UNL     1      -1.910  -6.822  -3.341  0.00  0.00    +0.134 C 
BRANCH  36  37
ATOM     37  C   UNL     1      -2.280  -8.274  -3.496  0.00  0.00    +0.356 C 
ATOM     38  O   UNL     1      -2.067  -9.058  -2.587  0.00  0.00    -0.246 OA
ATOM     39  O   UNL     1      -2.793  -8.665  -4.531  0.00  0.00    -0.246 OA
ENDBRANCH  36  37
ENDBRANCH  35  36
ENDBRANCH   6  35
TORSDOF 7
