REMARK  Name = ZINC01048035
REMARK  9 active torsions:
REMARK  status: ('A' for Active; 'I' for Inactive)
REMARK    1  A    between atoms: C_1  and  C_2
REMARK    2  A    between atoms: C_2  and  C_27
REMARK    3  A    between atoms: C_10  and  C_11
REMARK    4  A    between atoms: C_10  and  N_12
REMARK    5  A    between atoms: N_12  and  C_13
REMARK    6  A    between atoms: C_13  and  N_15
REMARK    7  A    between atoms: N_15  and  N_16
REMARK    8  A    between atoms: C_17  and  C_18
REMARK    9  A    between atoms: C_23  and  O_24
REMARK                            x       y       z     vdW  Elec       q    Type
REMARK                         _______ _______ _______ _____ _____    ______ ____
ROOT
ATOM      1  C   UNL     1       1.054   0.712  -2.457  0.00  0.00    +0.150 C 
ATOM      2  S   UNL     1       0.718  -0.780  -1.688  0.00  0.00    -0.017 S 
ENDROOT
BRANCH   1   3
ATOM      3  N   UNL     1       0.418   1.833  -2.060  0.00  0.00    -0.319 N 
ATOM      4  H   UNL     1       0.609   2.678  -2.495  0.00  0.00    +0.148 HD
BRANCH   3  12
ATOM      5  C   UNL     1      -2.606   3.295  -0.746  0.00  0.00    +0.013 C 
ATOM      6  C   UNL     1      -1.083   3.228  -0.622  0.00  0.00    -0.011 C 
ATOM      7  C   UNL     1      -0.649   3.435   0.861  0.00  0.00    -0.003 C 
ATOM      8  C   UNL     1       0.902   3.578   0.798  0.00  0.00    +0.004 C 
ATOM      9  C   UNL     1       1.412   2.159   0.457  0.00  0.00    +0.006 C 
ATOM     10  C   UNL     1       0.120   1.292   0.346  0.00  0.00    +0.013 C 
ATOM     11  C   UNL     1      -0.783   1.979   1.431  0.00  0.00    +0.009 C 
ATOM     12  C   UNL     1      -0.561   1.773  -0.972  0.00  0.00    +0.039 C 
ATOM     13  C   UNL     1      -1.718   0.844  -1.344  0.00  0.00    +0.032 C 
ATOM     14  C   UNL     1      -0.428   4.279  -1.521  0.00  0.00    +0.013 C 
ENDBRANCH   3  12
ENDBRANCH   1   3
BRANCH   1  15
ATOM     15  N   UNL     1       1.954   0.767  -3.458  0.00  0.00    -0.218 N 
ATOM     16  H   UNL     1       2.412  -0.039  -3.743  0.00  0.00    +0.176 HD
BRANCH  15  17
ATOM     17  N   UNL     1       2.229   1.988  -4.087  0.00  0.00    -0.188 NA
ATOM     18  C   UNL     1       3.097   2.041  -5.051  0.00  0.00    +0.142 C 
BRANCH  18  19
ATOM     19  C   UNL     1       3.386   3.326  -5.712  0.00  0.00    +0.039 A 
ATOM     20  C   UNL     1       4.323   3.388  -6.747  0.00  0.00    +0.033 A 
ATOM     21  C   UNL     1       4.586   4.593  -7.366  0.00  0.00    +0.043 A 
ATOM     22  C   UNL     1       3.932   5.744  -6.958  0.00  0.00    +0.043 A 
ATOM     23  C   UNL     1       3.007   5.696  -5.931  0.00  0.00    +0.084 A 
ATOM     24  C   UNL     1       2.728   4.493  -5.303  0.00  0.00    +0.144 A 
ATOM     25 CL   UNL     1       2.194   7.146  -5.429  0.00  0.00    -0.080 Cl
ATOM     26 CL   UNL     1       5.745   4.668  -8.656  0.00  0.00    -0.083 Cl
BRANCH  24  27
ATOM     27  O   UNL     1       1.818   4.445  -4.295  0.00  0.00    -0.505 OA
ATOM     28  H   UNL     1       2.197   4.588  -3.416  0.00  0.00    +0.292 HD
ENDBRANCH  24  27
ENDBRANCH  18  19
ENDBRANCH  15  17
ENDBRANCH   1  15
TORSDOF 6
