REMARK  Name = ZINC45724136
REMARK  9 active torsions:
REMARK  status: ('A' for Active; 'I' for Inactive)
REMARK    1  A    between atoms: C_1  and  O_2
REMARK    2  A    between atoms: O_2  and  C_3
REMARK    3  A    between atoms: C_8  and  C_9
REMARK    4  A    between atoms: C_9  and  C_11
REMARK    5  A    between atoms: C_9  and  N_26
REMARK    6  A    between atoms: C_11  and  N_12
REMARK    7  A    between atoms: C_16  and  N_23
REMARK    8  A    between atoms: C_17  and  N_19
REMARK    9  A    between atoms: N_19  and  C_20
REMARK                            x       y       z     vdW  Elec       q    Type
REMARK                         _______ _______ _______ _____ _____    ______ ____
ROOT
ATOM      1  C   UNL     1       0.661  -3.088  -1.471  0.00  0.00    +0.094 C 
ENDROOT
BRANCH   1   2
ATOM      2  N   UNL     1      -0.008  -3.932  -2.464  0.00  0.00    -0.315 N 
ATOM      3  C   UNL     1       0.622  -4.225  -3.660  0.00  0.00    +0.217 A 
ATOM      4  N   UNL     1       1.833  -3.739  -3.889  0.00  0.00    -0.221 NA
ATOM      5  C   UNL     1       2.469  -3.998  -5.022  0.00  0.00    +0.150 A 
ATOM      6  C   UNL     1       1.855  -4.787  -5.975  0.00  0.00    +0.184 A 
ATOM      7  C   UNL     1       0.579  -5.286  -5.707  0.00  0.00    +0.155 A 
ATOM      8  N   UNL     1       0.002  -4.990  -4.546  0.00  0.00    -0.197 NA
ATOM      9  H   UNL     1      -0.893  -4.285  -2.282  0.00  0.00    +0.149 HD
BRANCH   6  10
ATOM     10  N   UNL     1       2.535  -5.097  -7.253  0.00  0.00    +0.061 N 
ATOM     11  O   UNL     1       3.592  -4.572  -7.518  0.00  0.00    -0.126 OA
ATOM     12  O   UNL     1       2.034  -5.874  -8.031  0.00  0.00    -0.126 OA
ENDBRANCH   6  10
BRANCH   7  13
ATOM     13  N   UNL     1      -0.074  -6.081  -6.633  0.00  0.00    -0.324 N 
ATOM     14  H   UNL     1       0.383  -6.357  -7.444  0.00  0.00    +0.148 HD
BRANCH  13  15
ATOM     15  C   UNL     1      -1.455  -6.506  -6.391  0.00  0.00    +0.072 C 
ATOM     16  C   UNL     1      -1.808  -7.965  -6.689  0.00  0.00    +0.024 C 
ATOM     17  C   UNL     1      -2.313  -6.852  -7.609  0.00  0.00    +0.024 C 
ENDBRANCH  13  15
ENDBRANCH   7  13
ENDBRANCH   1   2
BRANCH   1  18
ATOM     18  C   UNL     1      -0.187  -3.026  -0.199  0.00  0.00    -0.017 C 
BRANCH  18  24
ATOM     19  C   UNL     1      -1.556  -0.957  -0.565  0.00  0.00    +0.122 A 
ATOM     20  C   UNL     1      -2.761  -0.330  -0.847  0.00  0.00    +0.046 A 
ATOM     21  C   UNL     1      -3.898  -1.085  -1.058  0.00  0.00    +0.004 A 
ATOM     22  C   UNL     1      -3.836  -2.465  -0.987  0.00  0.00    +0.000 A 
ATOM     23  C   UNL     1      -2.637  -3.092  -0.705  0.00  0.00    +0.005 A 
ATOM     24  C   UNL     1      -1.495  -2.342  -0.500  0.00  0.00    -0.018 A 
BRANCH  19  26
ATOM     25  C   UNL     1      -0.572   1.203  -0.440  0.00  0.00    +0.277 C 
ATOM     26  O   UNL     1      -0.435  -0.217  -0.358  0.00  0.00    -0.495 OA
ENDBRANCH  19  26
ENDBRANCH  18  24
BRANCH  18  27
ATOM     27  N   UNL     1      -0.447  -4.390   0.282  0.00  0.00    +0.385 N 
ATOM     28  C   UNL     1       0.834  -5.091   0.550  0.00  0.00    -0.078 C 
ATOM     29  C   UNL     1       0.425  -6.214   1.536  0.00  0.00    -0.020 C 
ATOM     30  C   UNL     1      -0.642  -5.526   2.419  0.00  0.00    -0.020 C 
ATOM     31  C   UNL     1      -1.161  -4.346   1.577  0.00  0.00    -0.078 C 
ATOM     32  H   UNL     1      -0.990  -4.901  -0.397  0.00  0.00    -0.081 HD
ENDBRANCH  18  27
ENDBRANCH   1  18
TORSDOF 8
