REMARK  Name = ZINC22792046
REMARK  7 active torsions:
REMARK  status: ('A' for Active; 'I' for Inactive)
REMARK    1  A    between atoms: C_1  and  C_2
REMARK    2  A    between atoms: C_2  and  C_25
REMARK    3  A    between atoms: N_5  and  C_9
REMARK    4  A    between atoms: C_9  and  N_10
REMARK    5  A    between atoms: N_13  and  C_16
REMARK    6  A    between atoms: C_16  and  C_17
REMARK    7  A    between atoms: C_18  and  C_19
REMARK                            x       y       z     vdW  Elec       q    Type
REMARK                         _______ _______ _______ _____ _____    ______ ____
ROOT
ATOM      1  C   UNL     1       1.005   7.990  -1.401  0.00  0.00    +0.047 C 
ATOM      2  C   UNL     1       1.044   7.447   0.029  0.00  0.00    +0.135 C 
ATOM      3  C   UNL     1       2.245   7.993   0.775  0.00  0.00    +0.252 C 
ATOM      4  O   UNL     1       3.414   7.836   0.495  0.00  0.00    -0.272 OA
ATOM      5  N   UNL     1       1.743   8.690   1.814  0.00  0.00    -0.210 N 
ATOM      6  C   UNL     1       0.406   8.660   1.828  0.00  0.00    +0.311 C 
ATOM      7  O   UNL     1      -0.274   9.215   2.669  0.00  0.00    -0.252 OA
ATOM      8  N   UNL     1      -0.105   7.946   0.804  0.00  0.00    -0.281 N 
ATOM      9  H   UNL     1      -1.130   7.702   0.487  0.00  0.00    +0.152 HD
ENDROOT
BRANCH   2  10
ATOM     10  C   UNL     1       1.064   5.940   0.022  0.00  0.00    -0.015 A 
ATOM     11  C   UNL     1       2.286   5.270   0.007  0.00  0.00    +0.007 A 
ATOM     12  C   UNL     1       2.340   3.910  -0.000  0.00  0.00    +0.009 A 
ATOM     13  C   UNL     1       1.147   3.167   0.008  0.00  0.00    -0.018 A 
ATOM     14  C   UNL     1       1.163   1.762   0.000  0.00  0.00    +0.008 A 
ATOM     15  C   UNL     1      -0.013   1.076   0.008  0.00  0.00    +0.001 A 
ATOM     16  C   UNL     1      -1.235   1.746   0.017  0.00  0.00    +0.001 A 
ATOM     17  C   UNL     1      -1.288   3.106   0.031  0.00  0.00    +0.008 A 
ATOM     18  C   UNL     1      -0.096   3.849   0.023  0.00  0.00    -0.018 A 
ATOM     19  C   UNL     1      -0.111   5.254   0.029  0.00  0.00    +0.014 A 
ENDBRANCH   2  10
BRANCH   5  20
ATOM     20  C   UNL     1       2.561   9.393   2.805  0.00  0.00    +0.205 C 
BRANCH  20  21
ATOM     21  N   UNL     1       2.800  10.771   2.353  0.00  0.00    -0.290 NA
ATOM     22  C   UNL     1       3.898  10.822   1.378  0.00  0.00    +0.067 C 
ATOM     23  C   UNL     1       4.062  12.258   0.874  0.00  0.00    -0.063 C 
ATOM     24  N   UNL     1       4.332  13.146   2.014  0.00  0.00    +0.384 N 
ATOM     25  C   UNL     1       3.234  13.095   2.990  0.00  0.00    -0.063 C 
ATOM     26  C   UNL     1       3.070  11.659   3.493  0.00  0.00    +0.067 C 
ATOM     27  H   UNL     1       5.246  12.792   2.512  0.00  0.00    -0.081 HD
BRANCH  24  28
ATOM     28  C   UNL     1       4.570  14.524   1.562  0.00  0.00    -0.051 C 
BRANCH  28  29
ATOM     29  C   UNL     1       5.846  14.576   0.761  0.00  0.00    -0.045 C 
ATOM     30  C   UNL     1       5.837  15.073  -0.468  0.00  0.00    +0.002 C 
BRANCH  30  31
ATOM     31  C   UNL     1       7.088  15.124  -1.253  0.00  0.00    -0.025 A 
ATOM     32  C   UNL     1       8.281  14.656  -0.702  0.00  0.00    +0.008 A 
ATOM     33  C   UNL     1       9.444  14.701  -1.443  0.00  0.00    +0.001 A 
ATOM     34  C   UNL     1       9.431  15.221  -2.725  0.00  0.00    +0.000 A 
ATOM     35  C   UNL     1       8.253  15.691  -3.275  0.00  0.00    +0.001 A 
ATOM     36  C   UNL     1       7.082  15.646  -2.547  0.00  0.00    +0.008 A 
ENDBRANCH  30  31
ENDBRANCH  28  29
ENDBRANCH  24  28
ENDBRANCH  20  21
ENDBRANCH   5  20
TORSDOF 6
