REMARK  Name = ZINC46245250
REMARK  10 active torsions:
REMARK  status: ('A' for Active; 'I' for Inactive)
REMARK    1  A    between atoms: C_1  and  C_2
REMARK    2  A    between atoms: C_2  and  C_3
REMARK    3  A    between atoms: C_2  and  N_4
REMARK    4  A    between atoms: C_5  and  C_7
REMARK    5  A    between atoms: C_7  and  C_8
REMARK    6  A    between atoms: C_11  and  N_14
REMARK    7  A    between atoms: C_15  and  C_17
REMARK    8  A    between atoms: C_17  and  C_19
REMARK    9  A    between atoms: C_17  and  S_25
REMARK   10  A    between atoms: S_25  and  C_26
REMARK                            x       y       z     vdW  Elec       q    Type
REMARK                         _______ _______ _______ _____ _____    ______ ____
ROOT
ATOM      1  N   UNL     1       8.331  -1.193  -1.523  0.00  0.00    -0.284 N 
ATOM      2  C   UNL     1       8.895  -2.271  -0.943  0.00  0.00    +0.235 C 
ATOM      3  O   UNL     1       8.222  -3.251  -0.701  0.00  0.00    -0.274 OA
ATOM      4  H   UNL     1       8.883  -0.440  -1.786  0.00  0.00    +0.155 HD
ENDROOT
BRANCH   1   8
ATOM      5  C   UNL     1       4.220  -1.096  -2.190  0.00  0.00    -0.039 A 
ATOM      6  C   UNL     1       4.724  -1.752  -1.082  0.00  0.00    +0.006 A 
ATOM      7  C   UNL     1       6.086  -1.786  -0.858  0.00  0.00    +0.023 A 
ATOM      8  C   UNL     1       6.950  -1.161  -1.747  0.00  0.00    +0.033 A 
ATOM      9  C   UNL     1       6.441  -0.503  -2.859  0.00  0.00    +0.023 A 
ATOM     10  C   UNL     1       5.078  -0.477  -3.080  0.00  0.00    +0.006 A 
BRANCH   5  11
ATOM     11  C   UNL     1       2.733  -1.061  -2.431  0.00  0.00    +0.130 C 
BRANCH  11  13
ATOM     12  N   UNL     1       1.038  -2.432  -3.601  0.00  0.00    -0.313 N 
ATOM     13  C   UNL     1       2.330  -2.254  -3.260  0.00  0.00    +0.218 C 
ATOM     14  O   UNL     1       3.168  -3.053  -3.619  0.00  0.00    -0.275 OA
ATOM     15  H   UNL     1       0.368  -1.792  -3.314  0.00  0.00    +0.149 HD
BRANCH  12  17
ATOM     16  C   UNL     1       0.418  -4.795  -3.491  0.00  0.00    +0.027 C 
ATOM     17  C   UNL     1       0.647  -3.591  -4.407  0.00  0.00    +0.067 C 
ATOM     18  C   UNL     1      -0.644  -3.273  -5.164  0.00  0.00    +0.027 C 
ENDBRANCH  12  17
ENDBRANCH  11  13
ENDBRANCH   5  11
ENDBRANCH   1   8
BRANCH   2  19
ATOM     19  C   UNL     1      10.361  -2.258  -0.593  0.00  0.00    +0.167 C 
BRANCH  19  20
ATOM     20  C   UNL     1      11.174  -2.545  -1.828  0.00  0.00    -0.025 A 
ATOM     21  C   UNL     1      10.999  -3.735  -2.510  0.00  0.00    +0.005 A 
ATOM     22  C   UNL     1      11.745  -3.998  -3.644  0.00  0.00    +0.000 A 
ATOM     23  C   UNL     1      12.667  -3.072  -4.095  0.00  0.00    +0.000 A 
ATOM     24  C   UNL     1      12.841  -1.882  -3.414  0.00  0.00    +0.000 A 
ATOM     25  C   UNL     1      12.092  -1.617  -2.283  0.00  0.00    +0.005 A 
ENDBRANCH  19  20
BRANCH  19  26
ATOM     26  S   UNL     1      10.694  -3.527   0.659  0.00  0.00    -0.108 S 
BRANCH  26  27
ATOM     27  C   UNL     1      12.392  -3.290   1.065  0.00  0.00    +0.009 A 
ATOM     28  C   UNL     1      13.123  -2.285   0.443  0.00  0.00    +0.015 A 
ATOM     29  C   UNL     1      14.454  -2.102   0.763  0.00  0.00    +0.001 A 
ATOM     30  C   UNL     1      15.059  -2.917   1.702  0.00  0.00    +0.000 A 
ATOM     31  C   UNL     1      14.335  -3.919   2.323  0.00  0.00    +0.001 A 
ATOM     32  C   UNL     1      13.003  -4.104   2.012  0.00  0.00    +0.015 A 
ENDBRANCH  26  27
ENDBRANCH  19  26
ENDBRANCH   2  19
TORSDOF 8
