REMARK  Name = ZINC59463301
REMARK  7 active torsions:
REMARK  status: ('A' for Active; 'I' for Inactive)
REMARK    1  A    between atoms: C_1  and  C_2
REMARK    2  A    between atoms: C_7  and  C_8
REMARK    3  A    between atoms: C_11  and  C_13
REMARK    4  A    between atoms: N_14  and  N_15
REMARK    5  A    between atoms: C_16  and  C_18
REMARK    6  A    between atoms: C_18  and  N_19
REMARK    7  A    between atoms: N_19  and  C_20
REMARK                            x       y       z     vdW  Elec       q    Type
REMARK                         _______ _______ _______ _____ _____    ______ ____
ROOT
ATOM      1  N   UNL     1       2.859   4.223   4.898  0.00  0.00    -0.206 N 
ATOM      2  C   UNL     1       3.863   4.899   4.305  0.00  0.00    +0.249 C 
ATOM      3  O   UNL     1       4.207   4.609   3.178  0.00  0.00    -0.272 OA
ATOM      4  H   UNL     1       2.584   4.455   5.798  0.00  0.00    +0.177 HD
ENDROOT
BRANCH   1   6
ATOM      5  C   UNL     1       1.243   2.534   4.785  0.00  0.00    +0.176 C 
ATOM      6  N   UNL     1       2.212   3.186   4.213  0.00  0.00    -0.185 NA
BRANCH   5  10
ATOM      7  C   UNL     1       0.025   0.016   2.492  0.00  0.00    +0.136 A 
ATOM      8  C   UNL     1      -0.806  -0.228   3.544  0.00  0.00    +0.050 A 
ATOM      9  C   UNL     1      -0.468   0.682   4.555  0.00  0.00    +0.051 A 
ATOM     10  C   UNL     1       0.567   1.450   4.069  0.00  0.00    +0.148 A 
ATOM     11  O   UNL     1       0.853   1.026   2.822  0.00  0.00    -0.454 OA
BRANCH   7  18
ATOM     12  C   UNL     1      -0.018   1.503   0.010  0.00  0.00    +0.044 C 
ATOM     13  C   UNL     1       0.002  -0.004   0.002  0.00  0.00    -0.040 A 
ATOM     14  C   UNL     1       0.006  -0.689  -1.196  0.00  0.00    +0.005 A 
ATOM     15  C   UNL     1       0.024  -2.072  -1.206  0.00  0.00    +0.020 A 
ATOM     16  C   UNL     1       0.040  -2.779  -0.015  0.00  0.00    +0.042 A 
ATOM     17  C   UNL     1       0.036  -2.107   1.190  0.00  0.00    +0.031 A 
ATOM     18  C   UNL     1       0.023  -0.710   1.207  0.00  0.00    +0.022 A 
ATOM     19 CL   UNL     1       0.062  -4.515  -0.039  0.00  0.00    -0.084 Cl
ENDBRANCH   7  18
ENDBRANCH   5  10
ENDBRANCH   1   6
BRANCH   2  20
ATOM     20  C   UNL     1       4.559   6.015   5.042  0.00  0.00    +0.199 C 
BRANCH  20  21
ATOM     21  N   UNL     1       5.604   6.586   4.189  0.00  0.00    -0.335 N 
ATOM     22  H   UNL     1       5.751   6.231   3.298  0.00  0.00    +0.147 HD
BRANCH  21  23
ATOM     23  C   UNL     1       6.391   7.643   4.659  0.00  0.00    +0.031 A 
ATOM     24  C   UNL     1       6.184   8.147   5.936  0.00  0.00    +0.027 A 
ATOM     25  C   UNL     1       6.961   9.191   6.402  0.00  0.00    +0.051 A 
ATOM     26  C   UNL     1       7.947   9.738   5.597  0.00  0.00    +0.166 A 
ATOM     27  C   UNL     1       8.157   9.234   4.316  0.00  0.00    +0.168 A 
ATOM     28  C   UNL     1       7.382   8.184   3.852  0.00  0.00    +0.072 A 
ATOM     29  O   UNL     1       9.173   9.934   3.733  0.00  0.00    -0.453 OA
ATOM     30  C   UNL     1       9.309  11.137   4.512  0.00  0.00    +0.466 C 
ATOM     31  O   UNL     1       8.833  10.755   5.816  0.00  0.00    -0.453 OA
ENDBRANCH  21  23
ENDBRANCH  20  21
ENDBRANCH   2  20
TORSDOF 6
