REMARK  Name = ZINC39531386
REMARK  11 active torsions:
REMARK  status: ('A' for Active; 'I' for Inactive)
REMARK    1  A    between atoms: C_1  and  C_2
REMARK    2  A    between atoms: C_2  and  O_3
REMARK    3  A    between atoms: O_3  and  C_4
REMARK    4  A    between atoms: N_7  and  C_11
REMARK    5  A    between atoms: C_11  and  C_13
REMARK    6  A    between atoms: C_11  and  C_17
REMARK    7  A    between atoms: C_13  and  N_14
REMARK    8  A    between atoms: N_14  and  S_15
REMARK    9  A    between atoms: S_15  and  C_16
REMARK   10  A    between atoms: C_20  and  C_23
REMARK   11  A    between atoms: C_23  and  C_24
REMARK                            x       y       z     vdW  Elec       q    Type
REMARK                         _______ _______ _______ _____ _____    ______ ____
ROOT
ATOM      1  C   UNL     1      -4.373  -4.201   0.355  0.00  0.00    -0.022 C 
ENDROOT
BRANCH   1   4
ATOM      2  C   UNL     1      -1.358  -1.972   0.186  0.00  0.00    +0.169 C 
ATOM      3  C   UNL     1      -2.834  -2.363   0.280  0.00  0.00    -0.030 C 
ATOM      4  N   UNL     1      -2.957  -3.826   0.247  0.00  0.00    +0.388 N 
ATOM      5  C   UNL     1      -2.410  -4.337  -1.017  0.00  0.00    -0.062 C 
ATOM      6  C   UNL     1      -0.930  -3.962  -1.121  0.00  0.00    +0.065 C 
ATOM      7  N   UNL     1      -0.792  -2.500  -1.063  0.00  0.00    -0.295 NA
ATOM      8  H   UNL     1      -1.219  -2.065  -1.866  0.00  0.00    +0.124 HD
ATOM      9  H   UNL     1      -2.444  -4.224   1.020  0.00  0.00    -0.081 HD
BRANCH   2  10
ATOM     10  O   UNL     1      -1.240  -0.548   0.199  0.00  0.00    -0.364 OA
BRANCH  10  12
ATOM     11  C   UNL     1       0.108   1.453   0.342  0.00  0.00    +0.034 C 
ATOM     12  C   UNL     1       0.102  -0.077   0.342  0.00  0.00    +0.158 C 
ENDBRANCH  10  12
ENDBRANCH   2  10
ENDBRANCH   1   4
BRANCH   1  13
ATOM     13  C   UNL     1      -4.943  -3.648   1.636  0.00  0.00    -0.060 A 
ATOM     14  C   UNL     1      -4.188  -3.669   2.794  0.00  0.00    +0.002 A 
ATOM     15  C   UNL     1      -4.711  -3.162   3.969  0.00  0.00    +0.004 A 
ATOM     16  C   UNL     1      -5.988  -2.634   3.986  0.00  0.00    -0.043 A 
ATOM     17  C   UNL     1      -6.743  -2.613   2.828  0.00  0.00    +0.004 A 
ATOM     18  C   UNL     1      -6.219  -3.116   1.652  0.00  0.00    +0.002 A 
BRANCH  16  19
ATOM     19  C   UNL     1      -6.559  -2.083   5.267  0.00  0.00    +0.070 C 
BRANCH  19  20
ATOM     20  C   UNL     1      -6.224  -0.617   5.376  0.00  0.00    -0.043 A 
ATOM     21  C   UNL     1      -5.051  -0.220   5.991  0.00  0.00    +0.004 A 
ATOM     22  C   UNL     1      -4.744   1.124   6.091  0.00  0.00    +0.000 A 
ATOM     23  C   UNL     1      -5.609   2.071   5.575  0.00  0.00    +0.000 A 
ATOM     24  C   UNL     1      -6.781   1.674   4.959  0.00  0.00    +0.000 A 
ATOM     25  C   UNL     1      -7.086   0.329   4.855  0.00  0.00    +0.004 A 
ENDBRANCH  19  20
ENDBRANCH  16  19
ENDBRANCH   1  13
BRANCH   1  26
ATOM     26  C   UNL     1      -4.498  -5.726   0.357  0.00  0.00    +0.082 C 
BRANCH  26  27
ATOM     27  N   UNL     1      -5.918  -6.101   0.388  0.00  0.00    -0.265 NA
ATOM     28  H   UNL     1      -6.465  -5.495  -0.205  0.00  0.00    +0.135 HD
BRANCH  27  29
ATOM     29  S   UNL     1      -6.136  -7.793  -0.065  0.00  0.00    -0.084 S 
ATOM     30  C   UNL     1      -7.929  -8.047   0.035  0.00  0.00    +0.102 C 
ENDBRANCH  27  29
ENDBRANCH  26  27
ENDBRANCH   1  26
TORSDOF 9
