REMARK  Name = ZINC45092209
REMARK  10 active torsions:
REMARK  status: ('A' for Active; 'I' for Inactive)
REMARK    1  A    between atoms: C_1  and  C_2
REMARK    2  A    between atoms: C_2  and  C_3
REMARK    3  A    between atoms: C_3  and  N_4
REMARK    4  A    between atoms: C_5  and  C_7
REMARK    5  A    between atoms: C_7  and  C_8
REMARK    6  A    between atoms: C_8  and  N_9
REMARK    7  A    between atoms: N_9  and  C_10
REMARK    8  A    between atoms: C_10  and  C_11
REMARK    9  A    between atoms: C_10  and  C_12
REMARK   10  A    between atoms: C_10  and  C_19
REMARK                            x       y       z     vdW  Elec       q    Type
REMARK                         _______ _______ _______ _____ _____    ______ ____
ROOT
ATOM      1  N   UNL     1       2.063  -5.930   3.639  0.00  0.00    +0.393 N 
ATOM      2  H   UNL     1       1.163  -6.385   3.636  0.00  0.00    -0.084 HD
ATOM      3  H   UNL     1       2.461  -5.966   2.712  0.00  0.00    -0.084 HD
ENDROOT
BRANCH   1   4
ATOM      4  C   UNL     1       2.956  -6.614   4.582  0.00  0.00    +0.058 C 
ATOM      5  C   UNL     1       2.402  -6.475   6.002  0.00  0.00    +0.006 C 
BRANCH   4   6
ATOM      6  C   UNL     1       3.046  -8.074   4.220  0.00  0.00    -0.048 A 
ATOM      7  C   UNL     1       2.345  -8.561   3.132  0.00  0.00    +0.004 A 
ATOM      8  C   UNL     1       2.428  -9.899   2.798  0.00  0.00    +0.015 A 
ATOM      9  C   UNL     1       3.213 -10.753   3.553  0.00  0.00    +0.018 A 
ATOM     10  C   UNL     1       3.914 -10.266   4.641  0.00  0.00    +0.015 A 
ATOM     11  C   UNL     1       3.835  -8.926   4.971  0.00  0.00    +0.004 A 
ATOM     12 BR   UNL     1       3.326 -12.585   3.098  0.00  0.00    -0.050 Br
ENDBRANCH   4   6
BRANCH   4  13
ATOM     13  C   UNL     1       4.328  -5.995   4.516  0.00  0.00    +0.349 C 
ATOM     14  O   UNL     1       4.576  -5.152   3.670  0.00  0.00    -0.248 OA
ATOM     15  O   UNL     1       5.191  -6.335   5.307  0.00  0.00    -0.248 OA
ENDBRANCH   4  13
ENDBRANCH   1   4
BRANCH   1  16
ATOM     16  C   UNL     1       1.901  -4.528   4.047  0.00  0.00    -0.071 C 
BRANCH  16  17
ATOM     17  C   UNL     1       1.082  -3.781   2.992  0.00  0.00    +0.077 C 
BRANCH  17  19
ATOM     18  N   UNL     1       0.225  -1.489   2.630  0.00  0.00    -0.315 N 
ATOM     19  C   UNL     1       0.916  -2.343   3.411  0.00  0.00    +0.211 C 
ATOM     20  O   UNL     1       1.405  -1.954   4.451  0.00  0.00    -0.276 OA
ATOM     21  H   UNL     1      -0.166  -1.800   1.799  0.00  0.00    +0.149 HD
BRANCH  18  22
ATOM     22  C   UNL     1       0.064  -0.091   3.037  0.00  0.00    +0.104 C 
BRANCH  22  24
ATOM     23  C   UNL     1      -0.924   2.116   2.408  0.00  0.00    +0.005 C 
ATOM     24  C   UNL     1      -0.755   0.656   1.983  0.00  0.00    +0.015 C 
ENDBRANCH  22  24
ENDBRANCH  18  22
ENDBRANCH  17  19
ENDBRANCH  16  17
ENDBRANCH   1  16
TORSDOF 8
