REMARK  Name = ZINC36156650
REMARK  9 active torsions:
REMARK  status: ('A' for Active; 'I' for Inactive)
REMARK    1  A    between atoms: C_4  and  C_7
REMARK    2  A    between atoms: C_7  and  C_8
REMARK    3  A    between atoms: C_8  and  C_10
REMARK    4  A    between atoms: C_8  and  O_35
REMARK    5  A    between atoms: C_10  and  N_11
REMARK    6  A    between atoms: N_11  and  C_12
REMARK    7  A    between atoms: N_11  and  C_19
REMARK    8  A    between atoms: C_12  and  C_13
REMARK    9  A    between atoms: C_19  and  C_20
REMARK                            x       y       z     vdW  Elec       q    Type
REMARK                         _______ _______ _______ _____ _____    ______ ____
ROOT
ATOM      1  N   UNL     1       5.829  -1.830   2.942  0.00  0.00    +0.389 N 
ATOM      2  H   UNL     1       5.805  -1.036   3.563  0.00  0.00    -0.081 HD
ENDROOT
BRANCH   1   3
ATOM      3  C   UNL     1       5.386  -1.418   1.603  0.00  0.00    -0.046 C 
BRANCH   3   4
ATOM      4  C   UNL     1       4.135  -0.547   1.725  0.00  0.00    +0.102 C 
BRANCH   4   5
ATOM      5  O   UNL     1       3.046  -1.341   2.200  0.00  0.00    -0.393 OA
ATOM      6  H   UNL     1       2.843  -2.105   1.643  0.00  0.00    +0.210 HD
ENDBRANCH   4   5
BRANCH   4   7
ATOM      7  C   UNL     1       3.782   0.034   0.354  0.00  0.00    +0.064 C 
BRANCH   7  11
ATOM      8  C   UNL     1       0.501   2.740   0.752  0.00  0.00    +0.000 A 
ATOM      9  C   UNL     1       1.797   3.203   0.874  0.00  0.00    +0.000 A 
ATOM     10  C   UNL     1       2.859   2.327   0.745  0.00  0.00    +0.004 A 
ATOM     11  C   UNL     1       2.624   0.988   0.495  0.00  0.00    -0.045 A 
ATOM     12  C   UNL     1       1.327   0.524   0.375  0.00  0.00    +0.004 A 
ATOM     13  C   UNL     1       0.266   1.400   0.502  0.00  0.00    +0.000 A 
ENDBRANCH   7  11
ENDBRANCH   4   7
ENDBRANCH   3   4
ENDBRANCH   1   3
BRANCH   1  14
ATOM     14  C   UNL     1       4.934  -2.878   3.453  0.00  0.00    -0.042 C 
BRANCH  14  15
ATOM     15  C   UNL     1       5.099  -4.126   2.625  0.00  0.00    -0.064 A 
ATOM     16  C   UNL     1       4.364  -4.290   1.466  0.00  0.00    +0.002 A 
ATOM     17  C   UNL     1       4.515  -5.435   0.708  0.00  0.00    +0.000 A 
ATOM     18  C   UNL     1       5.402  -6.417   1.107  0.00  0.00    +0.000 A 
ATOM     19  C   UNL     1       6.138  -6.253   2.266  0.00  0.00    +0.000 A 
ATOM     20  C   UNL     1       5.990  -5.106   3.023  0.00  0.00    +0.002 A 
ENDBRANCH  14  15
ENDBRANCH   1  14
BRANCH   1  21
ATOM     21  C   UNL     1       7.200  -2.352   2.866  0.00  0.00    -0.003 C 
BRANCH  21  22
ATOM     22  C   UNL     1       7.716  -2.613   4.258  0.00  0.00    +0.094 A 
ATOM     23  N   UNL     1       8.978  -3.085   4.423  0.00  0.00    -0.312 N 
ATOM     24  H   UNL     1       9.531  -3.247   3.643  0.00  0.00    +0.170 HD
ATOM     25  C   UNL     1       9.478  -3.332   5.648  0.00  0.00    +0.260 A 
ATOM     26  O   UNL     1      10.614  -3.755   5.780  0.00  0.00    -0.267 OA
ATOM     27  C   UNL     1       8.654  -3.089   6.795  0.00  0.00    +0.075 A 
ATOM     28  C   UNL     1       8.981  -3.283   8.207  0.00  0.00    -0.023 A 
ATOM     29  C   UNL     1       8.021  -2.977   9.106  0.00  0.00    -0.004 A 
ATOM     30  S   UNL     1       6.646  -2.420   8.137  0.00  0.00    -0.073 S 
ATOM     31  C   UNL     1       7.365  -2.602   6.524  0.00  0.00    +0.116 A 
ATOM     32  N   UNL     1       6.942  -2.377   5.284  0.00  0.00    -0.229 NA
ATOM     33  C   UNL     1       8.106  -3.087  10.597  0.00  0.00    +0.043 C 
ATOM     34  C   UNL     1       9.323  -3.955  10.950  0.00  0.00    +0.005 C 
ATOM     35  C   UNL     1      10.528  -3.463  10.143  0.00  0.00    +0.005 C 
ATOM     36  C   UNL     1      10.339  -3.807   8.665  0.00  0.00    +0.037 C 
ENDBRANCH  21  22
ENDBRANCH   1  21
TORSDOF 9
