REMARK  Name = ZINC38979404
REMARK  6 active torsions:
REMARK  status: ('A' for Active; 'I' for Inactive)
REMARK    1  A    between atoms: C_1  and  C_2
REMARK    2  A    between atoms: C_3  and  N_9
REMARK    3  A    between atoms: N_9  and  C_10
REMARK    4  A    between atoms: C_12  and  C_22
REMARK    5  A    between atoms: C_27  and  O_34
REMARK    6  A    between atoms: O_34  and  C_35
REMARK                            x       y       z     vdW  Elec       q    Type
REMARK                         _______ _______ _______ _____ _____    ______ ____
ROOT
ATOM      1  C   UNL     1       0.105  -0.713  -3.681  0.00  0.00    +0.188 C 
ATOM      2  C   UNL     1       1.154  -0.048  -4.590  0.00  0.00    +0.135 C 
ATOM      3  N   UNL     1       0.392   0.366  -5.772  0.00  0.00    -0.366 N 
ATOM      4  C   UNL     1      -0.875   0.032  -5.640  0.00  0.00    +0.101 C 
ATOM      5  N   UNL     1      -1.145  -0.604  -4.453  0.00  0.00    -0.271 N 
ATOM      6  C   UNL     1      -2.409  -1.022  -4.150  0.00  0.00    +0.098 C 
ATOM      7  C   UNL     1      -3.430  -0.822  -5.009  0.00  0.00    +0.055 C 
ATOM      8  C   UNL     1      -3.200  -0.175  -6.236  0.00  0.00    +0.024 C 
ATOM      9  C   UNL     1      -1.944   0.252  -6.555  0.00  0.00    +0.043 C 
ATOM     10 CL   UNL     1      -5.028  -1.363  -4.599  0.00  0.00    -0.082 Cl
ATOM     11  H   UNL     1       0.768   0.820  -6.542  0.00  0.00    +0.161 HD
ENDROOT
BRANCH   2  12
ATOM     12  C   UNL     1       2.243  -1.051  -4.974  0.00  0.00    +0.124 C 
ATOM     13  C   UNL     1       3.350  -0.290  -5.678  0.00  0.00    -0.002 C 
ATOM     14  C   UNL     1       3.670  -0.681  -6.944  0.00  0.00    -0.003 A 
ATOM     15  C   UNL     1       4.726  -0.000  -7.694  0.00  0.00    +0.055 A 
ATOM     16  C   UNL     1       5.012  -0.424  -8.956  0.00  0.00    +0.121 A 
ATOM     17  C   UNL     1       4.318  -1.491  -9.539  0.00  0.00    +0.047 A 
ATOM     18  C   UNL     1       3.330  -2.161  -8.893  0.00  0.00    +0.027 A 
ATOM     19  C   UNL     1       2.957  -1.800  -7.584  0.00  0.00    +0.041 A 
ATOM     20  N   UNL     1       1.986  -2.467  -6.961  0.00  0.00    -0.284 N 
ATOM     21  C   UNL     1       1.585  -2.181  -5.735  0.00  0.00    +0.226 C 
ATOM     22  O   UNL     1       0.692  -2.825  -5.218  0.00  0.00    -0.275 OA
ATOM     23  H   UNL     1       1.551  -3.196  -7.431  0.00  0.00    +0.155 HD
BRANCH  16  24
ATOM     24  O   UNL     1       5.990   0.200  -9.664  0.00  0.00    -0.495 OA
ATOM     25  C   UNL     1       6.249  -0.286 -10.982  0.00  0.00    +0.277 C 
ENDBRANCH  16  24
ENDBRANCH   2  12
BRANCH   1  26
ATOM     26  N   UNL     1      -0.010   0.010  -2.411  0.00  0.00    -0.324 N 
ATOM     27  H   UNL     1       0.043   0.978  -2.398  0.00  0.00    +0.148 HD
BRANCH  26  30
ATOM     28  C   UNL     1       0.035   1.466   0.032  0.00  0.00    +0.047 C 
ATOM     29  C   UNL     1      -0.181  -0.025  -0.004  0.00  0.00    -0.011 A 
ATOM     30  C   UNL     1      -0.195  -0.696  -1.220  0.00  0.00    +0.033 A 
ATOM     31  C   UNL     1      -0.395  -2.071  -1.250  0.00  0.00    +0.023 A 
ATOM     32  C   UNL     1      -0.578  -2.766  -0.071  0.00  0.00    +0.003 A 
ATOM     33  C   UNL     1      -0.564  -2.096   1.139  0.00  0.00    +0.020 A 
ATOM     34  C   UNL     1      -0.359  -0.728   1.173  0.00  0.00    +0.046 A 
ATOM     35 CL   UNL     1      -0.334   0.108   2.694  0.00  0.00    -0.083 Cl
ENDBRANCH  26  30
ENDBRANCH   1  26
TORSDOF 4
