REMARK  Name = ZINC21619720
REMARK  8 active torsions:
REMARK  status: ('A' for Active; 'I' for Inactive)
REMARK    1  A    between atoms: C_1  and  N_2
REMARK    2  A    between atoms: N_2  and  C_3
REMARK    3  A    between atoms: N_2  and  C_4
REMARK    4  A    between atoms: C_7  and  C_10
REMARK    5  A    between atoms: C_10  and  C_12
REMARK    6  A    between atoms: C_10  and  C_23
REMARK    7  A    between atoms: C_12  and  N_13
REMARK    8  A    between atoms: C_14  and  C_16
REMARK                            x       y       z     vdW  Elec       q    Type
REMARK                         _______ _______ _______ _____ _____    ______ ____
ROOT
ATOM      1  C   UNL     1       3.676   3.969  -0.012  0.00  0.00    +0.068 C 
ENDROOT
BRANCH   1   2
ATOM      2  C   UNL     1       2.186   4.197   0.004  0.00  0.00    -0.013 A 
ATOM      3  C   UNL     1       1.560   5.385   0.016  0.00  0.00    +0.088 A 
ATOM      4  N   UNL     1       0.205   5.198   0.028  0.00  0.00    -0.360 N 
ATOM      5  H   UNL     1      -0.470   6.067   0.039  0.00  0.00    +0.165 HD
ATOM      6  C   UNL     1      -0.082   3.852   0.024  0.00  0.00    +0.047 A 
ATOM      7  C   UNL     1       1.147   3.166   0.008  0.00  0.00    +0.003 A 
ATOM      8  C   UNL     1       1.165   1.770   0.000  0.00  0.00    +0.010 A 
ATOM      9  C   UNL     1      -0.013   1.076   0.008  0.00  0.00    +0.001 A 
ATOM     10  C   UNL     1      -1.227   1.748   0.017  0.00  0.00    +0.002 A 
ATOM     11  C   UNL     1      -1.268   3.125   0.031  0.00  0.00    +0.026 A 
ENDBRANCH   1   2
BRANCH   1  15
ATOM     12  C   UNL     1       5.423   5.725   3.470  0.00  0.00    +0.029 A 
ATOM     13  C   UNL     1       5.551   4.361   3.240  0.00  0.00    +0.023 A 
ATOM     14  C   UNL     1       4.984   3.797   2.114  0.00  0.00    +0.006 A 
ATOM     15  C   UNL     1       4.292   4.588   1.216  0.00  0.00    -0.038 A 
ATOM     16  C   UNL     1       4.168   5.947   1.439  0.00  0.00    +0.006 A 
ATOM     17  C   UNL     1       4.727   6.517   2.566  0.00  0.00    +0.023 A 
BRANCH  12  19
ATOM     18  C   UNL     1       6.729   5.462   5.561  0.00  0.00    +0.129 C 
ATOM     19  N   UNL     1       5.995   6.299   4.608  0.00  0.00    -0.336 N 
ATOM     20  C   UNL     1       5.860   7.738   4.850  0.00  0.00    +0.129 C 
ENDBRANCH  12  19
ENDBRANCH   1  15
BRANCH   1  21
ATOM     21  C   UNL     1       4.277   4.612  -1.264  0.00  0.00    +0.117 C 
BRANCH  21  22
ATOM     22  N   UNL     1       3.767   3.929  -2.456  0.00  0.00    -0.314 N 
ATOM     23  C   UNL     1       4.163   4.328  -3.681  0.00  0.00    +0.216 C 
ATOM     24  O   UNL     1       4.941   5.251  -3.797  0.00  0.00    -0.276 OA
ATOM     25  H   UNL     1       3.062   3.092  -2.351  0.00  0.00    +0.149 HD
BRANCH  23  26
ATOM     26  C   UNL     1       3.639   3.626  -4.907  0.00  0.00    +0.079 C 
ATOM     27  C   UNL     1       4.260   4.250  -6.164  0.00  0.00    +0.017 C 
ATOM     28  C   UNL     1       3.579   3.643  -7.392  0.00  0.00    +0.027 C 
ATOM     29  C   UNL     1       3.558   2.146  -7.285  0.00  0.00    -0.031 C 
ATOM     30  C   UNL     1       3.749   1.496  -6.182  0.00  0.00    -0.030 C 
ATOM     31  C   UNL     1       4.028   2.147  -4.859  0.00  0.00    +0.039 C 
ENDBRANCH  23  26
ENDBRANCH  21  22
ENDBRANCH   1  21
TORSDOF 6
