REMARK  Name = ZINC15082035
REMARK  4 active torsions:
REMARK  status: ('A' for Active; 'I' for Inactive)
REMARK    1  A    between atoms: C_4  and  O_19
REMARK    2  A    between atoms: C_5  and  C_7
REMARK    3  A    between atoms: O_19  and  C_20
REMARK    4  A    between atoms: C_20  and  C_21
REMARK                            x       y       z     vdW  Elec       q    Type
REMARK                         _______ _______ _______ _____ _____    ______ ____
ROOT
ATOM      1  C   UNL     1       1.792  -0.643   3.264  0.00  0.00    +0.001 A 
ATOM      2  C   UNL     1       0.889  -1.456   3.924  0.00  0.00    +0.004 A 
ATOM      3  C   UNL     1      -0.303  -1.801   3.317  0.00  0.00    +0.046 A 
ATOM      4  C   UNL     1      -0.593  -1.331   2.044  0.00  0.00    +0.125 A 
ATOM      5  C   UNL     1       0.314  -0.516   1.385  0.00  0.00    +0.003 A 
ATOM      6  C   UNL     1       1.508  -0.178   1.994  0.00  0.00    +0.008 A 
ENDROOT
BRANCH   5   7
ATOM      7  C   UNL     1       0.002  -0.004   0.002  0.00  0.00    +0.071 C 
ATOM      8  C   UNL     1      -0.019   1.531   0.011  0.00  0.00    +0.109 C 
ATOM      9  C   UNL     1       1.380   2.079   0.000  0.00  0.00    +0.219 C 
ATOM     10  O   UNL     1       1.615   3.071   0.657  0.00  0.00    -0.275 OA
ATOM     11  N   UNL     1       2.383   1.524  -0.701  0.00  0.00    -0.270 N 
ATOM     12  C   UNL     1       2.185   0.244  -1.286  0.00  0.00    +0.138 A 
ATOM     13  C   UNL     1       1.058  -0.450  -0.949  0.00  0.00    +0.041 A 
ATOM     14  S   UNL     1       1.212  -1.928  -1.906  0.00  0.00    -0.055 S 
ATOM     15  C   UNL     1       2.730  -1.537  -2.661  0.00  0.00    +0.158 A 
ATOM     16  N   UNL     1       3.000  -0.350  -2.151  0.00  0.00    -0.210 NA
ATOM     17  N   UNL     1       3.467  -2.282  -3.568  0.00  0.00    -0.337 N 
ATOM     18  H   UNL     1       3.228   1.990  -0.807  0.00  0.00    +0.156 HD
ATOM     19  H   UNL     1       3.144  -3.148  -3.861  0.00  0.00    +0.144 HD
ATOM     20  H   UNL     1       4.306  -1.936  -3.911  0.00  0.00    +0.144 HD
ENDBRANCH   5   7
BRANCH   4  21
ATOM     21  O   UNL     1      -1.765  -1.670   1.445  0.00  0.00    -0.487 OA
BRANCH  21  22
ATOM     22  C   UNL     1      -2.652  -2.513   2.183  0.00  0.00    +0.264 C 
BRANCH  22  23
ATOM     23  C   UNL     1      -3.889  -2.779   1.366  0.00  0.00    -0.008 A 
ATOM     24  C   UNL     1      -3.934  -3.868   0.515  0.00  0.00    +0.007 A 
ATOM     25  C   UNL     1      -5.069  -4.113  -0.236  0.00  0.00    +0.003 A 
ATOM     26  C   UNL     1      -6.159  -3.270  -0.137  0.00  0.00    +0.038 A 
ATOM     27  C   UNL     1      -6.116  -2.180   0.715  0.00  0.00    +0.124 A 
ATOM     28  C   UNL     1      -4.981  -1.938   1.471  0.00  0.00    +0.045 A 
ATOM     29  F   UNL     1      -7.181  -1.356   0.813  0.00  0.00    -0.205 F 
ENDBRANCH  22  23
ENDBRANCH  21  22
ENDBRANCH   4  21
TORSDOF 4
