REMARK  Name = ZINC59564788
REMARK  12 active torsions:
REMARK  status: ('A' for Active; 'I' for Inactive)
REMARK    1  A    between atoms: C_1  and  C_2
REMARK    2  A    between atoms: C_2  and  C_3
REMARK    3  A    between atoms: C_3  and  C_33
REMARK    4  A    between atoms: N_5  and  C_27
REMARK    5  A    between atoms: C_6  and  S_8
REMARK    6  A    between atoms: S_8  and  C_9
REMARK    7  A    between atoms: C_9  and  C_10
REMARK    8  A    between atoms: N_12  and  C_13
REMARK    9  A    between atoms: C_14  and  C_22
REMARK   10  A    between atoms: C_22  and  O_24
REMARK   11  A    between atoms: O_24  and  C_25
REMARK   12  A    between atoms: C_25  and  C_26
REMARK                            x       y       z     vdW  Elec       q    Type
REMARK                         _______ _______ _______ _____ _____    ______ ____
ROOT
ATOM      1  C   UNL     1       4.740   0.666  -0.268  0.00  0.00    +0.173 C 
ENDROOT
BRANCH   1   2
ATOM      2  C   UNL     1       6.121   0.836  -0.846  0.00  0.00    +0.228 C 
ATOM      3  O   UNL     1       6.841  -0.130  -0.989  0.00  0.00    -0.275 OA
ATOM      4  N   UNL     1       6.556   2.060  -1.204  0.00  0.00    -0.279 N 
ATOM      5  H   UNL     1       5.980   2.832  -1.090  0.00  0.00    +0.155 HD
BRANCH   4   6
ATOM      6  C   UNL     1       7.827   2.216  -1.736  0.00  0.00    +0.086 A 
ATOM      7  C   UNL     1       8.439   3.389  -2.151  0.00  0.00    +0.091 A 
ATOM      8  C   UNL     1       9.790   3.282  -2.677  0.00  0.00    -0.021 A 
ATOM      9  C   UNL     1      10.279   2.024  -2.691  0.00  0.00    -0.004 A 
ATOM     10  S   UNL     1       8.980   1.029  -2.018  0.00  0.00    -0.077 S 
ATOM     11  C   UNL     1      11.630   1.589  -3.171  0.00  0.00    +0.043 C 
ATOM     12  C   UNL     1      12.239   2.732  -3.996  0.00  0.00    +0.005 C 
ATOM     13  C   UNL     1      12.088   4.041  -3.216  0.00  0.00    +0.005 C 
ATOM     14  C   UNL     1      10.616   4.458  -3.177  0.00  0.00    +0.037 C 
BRANCH   7  15
ATOM     15  C   UNL     1       7.754   4.680  -2.064  0.00  0.00    +0.342 C 
ATOM     16  O   UNL     1       7.857   5.357  -1.059  0.00  0.00    -0.245 OA
BRANCH  15  17
ATOM     17  O   UNL     1       7.008   5.118  -3.099  0.00  0.00    -0.461 OA
BRANCH  17  18
ATOM     18  C   UNL     1       6.367   6.386  -2.946  0.00  0.00    +0.229 C 
ATOM     19  C   UNL     1       5.573   6.713  -4.212  0.00  0.00    +0.048 C 
ENDBRANCH  17  18
ENDBRANCH  15  17
ENDBRANCH   7  15
ENDBRANCH   4   6
ENDBRANCH   1   2
BRANCH   1  20
ATOM     20  S   UNL     1       4.453  -1.085   0.110  0.00  0.00    -0.082 S 
BRANCH  20  24
ATOM     21  C   UNL     1       0.791  -0.495   1.488  0.00  0.00    +0.104 C 
ATOM     22  N   UNL     1       0.933  -1.956   1.650  0.00  0.00    -0.209 NA
ATOM     23  N   UNL     1       2.187  -2.256   1.193  0.00  0.00    -0.213 N 
ATOM     24  C   UNL     1       2.819  -1.117   0.769  0.00  0.00    +0.151 C 
ATOM     25  N   UNL     1       2.072  -0.062   0.910  0.00  0.00    -0.348 N 
ATOM     26  C   UNL     1       0.563   0.176   2.844  0.00  0.00    +0.053 C 
ATOM     27  H   UNL     1       0.827  -2.224   2.617  0.00  0.00    +0.147 HD
ATOM     28  H   UNL     1       2.315   0.847   0.676  0.00  0.00    +0.163 HD
BRANCH  23  29
ATOM     29  C   UNL     1       2.743  -3.538   1.163  0.00  0.00    +0.052 A 
ATOM     30  C   UNL     1       4.022  -3.754   1.658  0.00  0.00    +0.025 A 
ATOM     31  C   UNL     1       4.569  -5.022   1.628  0.00  0.00    +0.002 A 
ATOM     32  C   UNL     1       3.843  -6.077   1.105  0.00  0.00    +0.000 A 
ATOM     33  C   UNL     1       2.569  -5.865   0.611  0.00  0.00    +0.002 A 
ATOM     34  C   UNL     1       2.014  -4.601   0.644  0.00  0.00    +0.025 A 
ENDBRANCH  23  29
BRANCH  21  36
ATOM     35  C   UNL     1      -0.434   1.339   0.314  0.00  0.00    +0.007 C 
ATOM     36  C   UNL     1      -0.361  -0.174   0.534  0.00  0.00    +0.042 C 
ENDBRANCH  21  36
ENDBRANCH  20  24
ENDBRANCH   1  20
TORSDOF 9
