REMARK  Name = ZINC22437056
REMARK  9 active torsions:
REMARK  status: ('A' for Active; 'I' for Inactive)
REMARK    1  A    between atoms: C_1  and  C_2
REMARK    2  A    between atoms: C_5  and  N_9
REMARK    3  A    between atoms: C_6  and  C_8
REMARK    4  A    between atoms: C_10  and  C_14
REMARK    5  A    between atoms: C_14  and  N_21
REMARK    6  A    between atoms: C_17  and  C_20
REMARK    7  A    between atoms: N_21  and  C_22
REMARK    8  A    between atoms: C_25  and  O_28
REMARK    9  A    between atoms: O_28  and  C_29
REMARK                            x       y       z     vdW  Elec       q    Type
REMARK                         _______ _______ _______ _____ _____    ______ ____
ROOT
ATOM      1  C   UNL     1       1.667   1.189  -0.087  0.00  0.00    +0.094 C 
ATOM      2  C   UNL     1       1.362   2.075   1.122  0.00  0.00    +0.034 C 
ATOM      3  C   UNL     1      -0.140   2.044   1.411  0.00  0.00    +0.006 C 
ATOM      4  C   UNL     1      -0.572   0.607   1.711  0.00  0.00    -0.014 C 
ATOM      5  C   UNL     1      -0.267  -0.279   0.501  0.00  0.00    +0.006 C 
ATOM      6  C   UNL     1       1.235  -0.248   0.212  0.00  0.00    +0.034 C 
ATOM      7  C   UNL     1       0.193   0.088   2.930  0.00  0.00    +0.007 C 
ENDROOT
BRANCH   1   9
ATOM      8  N   UNL     1       3.878   2.308  -0.693  0.00  0.00    -0.195 N 
ATOM      9  C   UNL     1       3.147   1.219  -0.372  0.00  0.00    +0.180 A 
ATOM     10  N   UNL     1       3.962   0.198  -0.348  0.00  0.00    -0.111 NA
ATOM     11  N   UNL     1       5.157   0.565  -0.641  0.00  0.00    -0.023 NA
ATOM     12  N   UNL     1       5.191   1.835  -0.862  0.00  0.00    -0.039 NA
BRANCH   8  17
ATOM     13  C   UNL     1       2.045   7.652  -1.245  0.00  0.00    +0.044 C 
ATOM     14  C   UNL     1       2.531   6.233  -1.099  0.00  0.00    -0.050 A 
ATOM     15  C   UNL     1       2.013   5.239  -1.908  0.00  0.00    +0.005 A 
ATOM     16  C   UNL     1       2.460   3.939  -1.779  0.00  0.00    +0.028 A 
ATOM     17  C   UNL     1       3.425   3.629  -0.830  0.00  0.00    +0.072 A 
ATOM     18  C   UNL     1       3.944   4.629  -0.019  0.00  0.00    -0.025 A 
ATOM     19  C   UNL     1       3.496   5.929  -0.156  0.00  0.00    +0.008 A 
ATOM     20  C   UNL     1       4.995   4.298   1.008  0.00  0.00    +0.046 C 
ENDBRANCH   8  17
ENDBRANCH   1   9
BRANCH   1  21
ATOM     21  N   UNL     1       0.935   1.686  -1.254  0.00  0.00    -0.332 N 
ATOM     22  H   UNL     1       0.301   2.581  -1.166  0.00  0.00    +0.147 HD
BRANCH  21  23
ATOM     23  C   UNL     1       1.041   1.022  -2.482  0.00  0.00    +0.028 A 
ATOM     24  C   UNL     1       1.968   0.001  -2.641  0.00  0.00    +0.026 A 
ATOM     25  C   UNL     1       2.068  -0.658  -3.851  0.00  0.00    +0.047 A 
ATOM     26  C   UNL     1       1.251  -0.290  -4.910  0.00  0.00    +0.120 A 
ATOM     27  C   UNL     1       0.329   0.734  -4.754  0.00  0.00    +0.047 A 
ATOM     28  C   UNL     1       0.224   1.389  -3.542  0.00  0.00    +0.026 A 
BRANCH  26  29
ATOM     29  O   UNL     1       1.355  -0.935  -6.104  0.00  0.00    -0.495 OA
ATOM     30  C   UNL     1       2.237  -2.057  -6.160  0.00  0.00    +0.277 C 
ENDBRANCH  26  29
ENDBRANCH  21  23
ENDBRANCH   1  21
TORSDOF 5
