REMARK  Name = ZINC21230779
REMARK  7 active torsions:
REMARK  status: ('A' for Active; 'I' for Inactive)
REMARK    1  A    between atoms: C_1  and  C_2
REMARK    2  A    between atoms: C_2  and  O_3
REMARK    3  A    between atoms: O_3  and  C_4
REMARK    4  A    between atoms: C_7  and  C_10
REMARK    5  A    between atoms: C_15  and  C_20
REMARK    6  A    between atoms: C_24  and  O_26
REMARK    7  A    between atoms: O_26  and  C_27
REMARK                            x       y       z     vdW  Elec       q    Type
REMARK                         _______ _______ _______ _____ _____    ______ ____
ROOT
ATOM      1  C   UNL     1      -5.705  -1.901  -0.077  0.00  0.00    +0.136 C 
ATOM      2  C   UNL     1      -4.444  -1.092   0.108  0.00  0.00    +0.036 C 
ATOM      3  C   UNL     1      -3.891  -0.752   1.285  0.00  0.00    +0.017 C 
ATOM      4  C   UNL     1      -2.606   0.059   1.329  0.00  0.00    +0.059 C 
ATOM      5  C   UNL     1      -2.544   1.004   0.130  0.00  0.00    +0.032 C 
ATOM      6  C   UNL     1      -2.596   0.150  -1.142  0.00  0.00    +0.088 C 
ATOM      7  C   UNL     1      -3.843  -0.683  -1.106  0.00  0.00    +0.163 C 
ATOM      8  O   UNL     1      -4.355  -1.018  -2.156  0.00  0.00    -0.292 OA
ATOM      9  N   UNL     1      -4.388  -1.097   2.500  0.00  0.00    -0.316 N 
ATOM     10  C   UNL     1      -5.722  -0.987   2.875  0.00  0.00    +0.052 A 
ATOM     11  C   UNL     1      -6.133  -0.170   3.914  0.00  0.00    +0.025 A 
ATOM     12  C   UNL     1      -7.459  -0.196   4.313  0.00  0.00    +0.002 A 
ATOM     13  C   UNL     1      -8.362  -1.029   3.679  0.00  0.00    +0.002 A 
ATOM     14  C   UNL     1      -7.957  -1.829   2.625  0.00  0.00    +0.025 A 
ATOM     15  C   UNL     1      -6.635  -1.792   2.212  0.00  0.00    +0.049 A 
ATOM     16  N   UNL     1      -6.189  -2.544   1.126  0.00  0.00    -0.331 N 
ATOM     17  H   UNL     1      -3.718  -1.498   3.275  0.00  0.00    +0.152 HD
ATOM     18  H   UNL     1      -6.210  -3.642   1.192  0.00  0.00    +0.147 HD
ENDROOT
BRANCH   1  22
ATOM     19  C   UNL     1      -8.769   0.685  -1.556  0.00  0.00    +0.121 A 
ATOM     20  C   UNL     1      -8.321  -0.376  -2.330  0.00  0.00    +0.046 A 
ATOM     21  C   UNL     1      -7.331  -1.210  -1.849  0.00  0.00    +0.009 A 
ATOM     22  C   UNL     1      -6.785  -0.989  -0.598  0.00  0.00    -0.023 A 
ATOM     23  C   UNL     1      -7.234   0.064   0.177  0.00  0.00    +0.009 A 
ATOM     24  C   UNL     1      -8.220   0.905  -0.301  0.00  0.00    +0.046 A 
BRANCH  19  25
ATOM     25  O   UNL     1      -9.743   1.508  -2.026  0.00  0.00    -0.492 OA
BRANCH  25  27
ATOM     26  C   UNL     1     -11.250   3.391  -1.870  0.00  0.00    +0.048 C 
ATOM     27  C   UNL     1     -10.154   2.579  -1.175  0.00  0.00    +0.225 C 
ENDBRANCH  25  27
ENDBRANCH  19  25
ENDBRANCH   1  22
BRANCH   5  28
ATOM     28  C   UNL     1      -1.258   1.789   0.166  0.00  0.00    -0.040 A 
ATOM     29  C   UNL     1      -0.044   1.127   0.163  0.00  0.00    +0.004 A 
ATOM     30  C   UNL     1       1.137   1.845   0.190  0.00  0.00    +0.004 A 
ATOM     31  C   UNL     1       1.107   3.226   0.225  0.00  0.00    +0.045 A 
ATOM     32  C   UNL     1      -0.109   3.892   0.233  0.00  0.00    +0.120 A 
ATOM     33  C   UNL     1      -1.293   3.170   0.206  0.00  0.00    +0.049 A 
BRANCH  32  34
ATOM     34  O   UNL     1      -0.141   5.250   0.268  0.00  0.00    -0.495 OA
ATOM     35  C   UNL     1       1.117   5.928   0.294  0.00  0.00    +0.277 C 
ENDBRANCH  32  34
ENDBRANCH   5  28
TORSDOF 5
