REMARK  Name = ZINC12847745
REMARK  5 active torsions:
REMARK  status: ('A' for Active; 'I' for Inactive)
REMARK    1  A    between atoms: C_1  and  C_2
REMARK    2  A    between atoms: C_2  and  C_4
REMARK    3  A    between atoms: C_2  and  O_13
REMARK    4  A    between atoms: O_13  and  C_14
REMARK    5  A    between atoms: C_14  and  C_16
REMARK                            x       y       z     vdW  Elec       q    Type
REMARK                         _______ _______ _______ _____ _____    ______ ____
ROOT
ATOM      1  C   UNL     1       3.716  -0.860  -0.223  0.00  0.00    +0.340 C 
ATOM      2  O   UNL     1       3.854  -2.062  -0.100  0.00  0.00    -0.245 OA
ENDROOT
BRANCH   1   3
ATOM      3  C   UNL     1       2.367  -0.285  -0.366  0.00  0.00    +0.061 A 
ATOM      4  C   UNL     1       2.209   1.097  -0.507  0.00  0.00    +0.016 A 
ATOM      5  C   UNL     1       0.947   1.631  -0.643  0.00  0.00    +0.017 A 
ATOM      6  C   UNL     1      -0.165   0.799  -0.639  0.00  0.00    +0.030 A 
ATOM      7  C   UNL     1      -0.022  -0.585  -0.495  0.00  0.00    +0.048 A 
ATOM      8  C   UNL     1       1.248  -1.122  -0.360  0.00  0.00    +0.039 A 
ATOM      9  N   UNL     1      -1.127  -1.433  -0.479  0.00  0.00    -0.284 N 
ATOM     10  C   UNL     1      -2.330  -1.167  -0.980  0.00  0.00    +0.227 C 
ATOM     11  O   UNL     1      -3.188  -2.021  -0.895  0.00  0.00    -0.275 OA
ATOM     12  C   UNL     1      -2.686   0.133  -1.648  0.00  0.00    +0.170 C 
ATOM     13  S   UNL     1      -1.784   1.480  -0.826  0.00  0.00    -0.114 S 
ATOM     14  H   UNL     1      -1.008  -2.300  -0.062  0.00  0.00    +0.155 HD
ENDBRANCH   1   3
BRANCH   1  15
ATOM     15  O   UNL     1       4.796  -0.055  -0.228  0.00  0.00    -0.449 OA
BRANCH  15  17
ATOM     16  C   UNL     1       6.455  -0.779   1.402  0.00  0.00    +0.062 C 
ATOM     17  C   UNL     1       6.093  -0.690  -0.082  0.00  0.00    +0.259 C 
BRANCH  17  18
ATOM     18  C   UNL     1       7.135   0.123  -0.805  0.00  0.00    +0.256 C 
ATOM     19  O   UNL     1       6.850   1.214  -1.252  0.00  0.00    -0.272 OA
ATOM     20  N   UNL     1       8.384  -0.361  -0.956  0.00  0.00    -0.298 N 
ATOM     21  C   UNL     1       9.388   0.486  -1.560  0.00  0.00    +0.108 C 
ATOM     22  C   UNL     1       9.382   0.297  -3.091  0.00  0.00    +0.019 C 
ATOM     23  C   UNL     1       9.930  -1.021  -3.445  0.00  0.00    +0.002 C 
ATOM     24  C   UNL     1       9.122  -2.201  -2.914  0.00  0.00    +0.002 C 
ATOM     25  C   UNL     1       9.552  -2.506  -1.500  0.00  0.00    +0.019 C 
ATOM     26  C   UNL     1       8.669  -1.736  -0.502  0.00  0.00    +0.108 C 
ENDBRANCH  17  18
ENDBRANCH  15  17
ENDBRANCH   1  15
TORSDOF 4
