REMARK  Name = ZINC37719895
REMARK  9 active torsions:
REMARK  status: ('A' for Active; 'I' for Inactive)
REMARK    1  A    between atoms: C_1  and  C_2
REMARK    2  A    between atoms: C_2  and  O_3
REMARK    3  A    between atoms: O_3  and  C_4
REMARK    4  A    between atoms: C_6  and  C_19
REMARK    5  A    between atoms: C_9  and  O_10
REMARK    6  A    between atoms: O_10  and  C_11
REMARK    7  A    between atoms: C_11  and  C_12
REMARK    8  A    between atoms: C_19  and  C_20
REMARK    9  A    between atoms: C_20  and  N_21
REMARK                            x       y       z     vdW  Elec       q    Type
REMARK                         _______ _______ _______ _____ _____    ______ ____
ROOT
ATOM      1  C   UNL     1       0.777  -1.811  -1.336  0.00  0.00    +0.163 A 
ATOM      2  C   UNL     1       0.243  -2.669  -0.388  0.00  0.00    +0.053 A 
ATOM      3  C   UNL     1       0.352  -4.037  -0.554  0.00  0.00    -0.044 A 
ATOM      4  C   UNL     1       0.992  -4.553  -1.665  0.00  0.00    +0.022 A 
ATOM      5  C   UNL     1       1.527  -3.702  -2.616  0.00  0.00    +0.063 A 
ATOM      6  C   UNL     1       1.416  -2.329  -2.458  0.00  0.00    +0.176 A 
ATOM      7 BR   UNL     1       2.403  -4.412  -4.134  0.00  0.00    -0.046 Br
ENDROOT
BRANCH   1   8
ATOM      8  O   UNL     1       0.671  -0.465  -1.174  0.00  0.00    -0.489 OA
BRANCH   8  10
ATOM      9  C   UNL     1      -0.019   1.526   0.010  0.00  0.00    +0.048 C 
ATOM     10  C   UNL     1       0.002  -0.004   0.002  0.00  0.00    +0.226 C 
ENDBRANCH   8  10
ENDBRANCH   1   8
BRANCH   6  11
ATOM     11  O   UNL     1       1.936  -1.491  -3.394  0.00  0.00    -0.482 OA
BRANCH  11  12
ATOM     12  C   UNL     1       3.293  -1.080  -3.215  0.00  0.00    +0.272 C 
BRANCH  12  13
ATOM     13  C   UNL     1       3.692  -0.161  -4.341  0.00  0.00    +0.028 A 
ATOM     14  C   UNL     1       3.598   1.189  -4.415  0.00  0.00    +0.016 A 
ATOM     15  C   UNL     1       4.032   1.830  -5.560  0.00  0.00    +0.023 A 
ATOM     16  C   UNL     1       4.539   1.088  -6.576  0.00  0.00    +0.055 A 
ATOM     17  S   UNL     1       4.420  -0.568  -5.919  0.00  0.00    -0.083 S 
ATOM     18 BR   UNL     1       5.207   1.660  -8.250  0.00  0.00    -0.043 Br
ENDBRANCH  12  13
ENDBRANCH  11  12
ENDBRANCH   6  11
BRANCH   3  19
ATOM     19  C   UNL     1      -0.228  -4.968   0.479  0.00  0.00    +0.016 C 
BRANCH  19  20
ATOM     20  C   UNL     1      -1.677  -5.296   0.114  0.00  0.00    -0.082 C 
BRANCH  20  21
ATOM     21  N   UNL     1      -2.243  -6.204   1.121  0.00  0.00    +0.378 N 
ATOM     22  H   UNL     1      -3.199  -6.420   0.880  0.00  0.00    -0.090 HD
ATOM     23  H   UNL     1      -1.702  -7.055   1.148  0.00  0.00    -0.090 HD
ATOM     24  H   UNL     1      -2.217  -5.760   2.026  0.00  0.00    -0.090 HD
ENDBRANCH  20  21
ENDBRANCH  19  20
ENDBRANCH   3  19
TORSDOF 8
