REMARK  Name = ZINC22542755
REMARK  11 active torsions:
REMARK  status: ('A' for Active; 'I' for Inactive)
REMARK    1  A    between atoms: C_1  and  C_2
REMARK    2  A    between atoms: C_2  and  C_3
REMARK    3  A    between atoms: C_2  and  C_4
REMARK    4  A    between atoms: C_7  and  C_10
REMARK    5  A    between atoms: C_10  and  C_12
REMARK    6  A    between atoms: C_10  and  N_17
REMARK    7  A    between atoms: C_18  and  C_20
REMARK    8  A    between atoms: C_21  and  C_22
REMARK    9  A    between atoms: C_25  and  S_28
REMARK   10  A    between atoms: S_28  and  N_31
REMARK   11  A    between atoms: N_31  and  C_32
REMARK                            x       y       z     vdW  Elec       q    Type
REMARK                         _______ _______ _______ _____ _____    ______ ____
ROOT
ATOM      1  N   UNL     1      -5.431  -3.391  -0.431  0.00  0.00    -0.300 N 
ATOM      2  C   UNL     1      -6.424  -4.222  -0.057  0.00  0.00    +0.238 C 
ATOM      3  O   UNL     1      -7.310  -3.822   0.675  0.00  0.00    -0.271 OA
ATOM      4  H   UNL     1      -4.725  -3.710  -1.014  0.00  0.00    +0.150 HD
ENDROOT
BRANCH   2   5
ATOM      5  C   UNL     1      -6.436  -5.608  -0.531  0.00  0.00    +0.068 C 
ATOM      6  C   UNL     1      -7.428  -6.439  -0.157  0.00  0.00    +0.013 C 
BRANCH   6   7
ATOM      7  C   UNL     1      -7.441  -7.832  -0.634  0.00  0.00    -0.025 A 
ATOM      8  C   UNL     1      -6.421  -8.298  -1.470  0.00  0.00    +0.010 A 
ATOM      9  C   UNL     1      -6.440  -9.604  -1.913  0.00  0.00    +0.029 A 
ATOM     10  C   UNL     1      -7.464 -10.453  -1.531  0.00  0.00    +0.105 A 
ATOM     11  C   UNL     1      -8.476 -10.000  -0.703  0.00  0.00    +0.029 A 
ATOM     12  C   UNL     1      -8.469  -8.698  -0.248  0.00  0.00    +0.010 A 
BRANCH  10  13
ATOM     13  S   UNL     1      -7.479 -12.120  -2.102  0.00  0.00    +0.058 S 
ATOM     14  O   UNL     1      -8.830 -12.556  -2.047  0.00  0.00    -0.153 OA
ATOM     15  O   UNL     1      -6.718 -12.145  -3.302  0.00  0.00    -0.153 OA
BRANCH  13  16
ATOM     16  N   UNL     1      -6.644 -13.024  -0.994  0.00  0.00    -0.193 NA
ATOM     17  C   UNL     1      -7.162 -13.174   0.368  0.00  0.00    +0.127 C 
ATOM     18  H   UNL     1      -5.813 -13.455  -1.247  0.00  0.00    +0.148 HD
ENDBRANCH  13  16
ENDBRANCH  10  13
ENDBRANCH   6   7
ENDBRANCH   2   5
BRANCH   1  19
ATOM     19  C   UNL     1      -5.419  -2.005   0.043  0.00  0.00    +0.140 C 
BRANCH  19  23
ATOM     20  C   UNL     1      -1.412  -0.526   0.013  0.00  0.00    -0.045 A 
ATOM     21  C   UNL     1      -2.259  -0.204   1.056  0.00  0.00    +0.004 A 
ATOM     22  C   UNL     1      -3.556  -0.683   1.066  0.00  0.00    +0.006 A 
ATOM     23  C   UNL     1      -4.006  -1.482   0.032  0.00  0.00    -0.022 A 
ATOM     24  C   UNL     1      -3.159  -1.803  -1.012  0.00  0.00    +0.006 A 
ATOM     25  C   UNL     1      -1.863  -1.321  -1.024  0.00  0.00    +0.004 A 
BRANCH  20  27
ATOM     26  C   UNL     1      -0.019   1.526   0.010  0.00  0.00    +0.012 C 
ATOM     27  C   UNL     1       0.002  -0.004   0.002  0.00  0.00    +0.013 C 
ATOM     28  C   UNL     1       0.742  -0.511   1.242  0.00  0.00    +0.012 C 
ENDBRANCH  20  27
ENDBRANCH  19  23
BRANCH  19  29
ATOM     29  C   UNL     1      -6.275  -1.157  -0.862  0.00  0.00    +0.014 A 
ATOM     30  C   UNL     1      -7.126  -0.152  -0.537  0.00  0.00    +0.013 A 
ATOM     31  C   UNL     1      -7.815   0.495  -1.546  0.00  0.00    +0.008 A 
ATOM     32  C   UNL     1      -7.620   0.105  -2.829  0.00  0.00    +0.045 A 
ATOM     33  S   UNL     1      -6.427  -1.209  -2.639  0.00  0.00    -0.099 S 
ENDBRANCH  19  29
ENDBRANCH   1  19
TORSDOF 8
