REMARK  Name = ZINC06478224
REMARK  8 active torsions:
REMARK  status: ('A' for Active; 'I' for Inactive)
REMARK    1  A    between atoms: C_1  and  C_2
REMARK    2  A    between atoms: C_5  and  N_9
REMARK    3  A    between atoms: N_9  and  C_10
REMARK    4  A    between atoms: C_10  and  N_12
REMARK    5  A    between atoms: N_12  and  C_13
REMARK    6  A    between atoms: N_12  and  C_21
REMARK    7  A    between atoms: C_13  and  C_14
REMARK    8  A    between atoms: C_21  and  C_22
REMARK                            x       y       z     vdW  Elec       q    Type
REMARK                         _______ _______ _______ _____ _____    ______ ____
ROOT
ATOM      1  N   UNL     1      -0.122  -6.205  -1.180  0.00  0.00    -0.301 N 
ENDROOT
BRANCH   1   2
ATOM      2  C   UNL     1       0.037  -4.867  -1.199  0.00  0.00    +0.138 C 
ATOM      3  S   UNL     1       0.141  -4.038  -2.693  0.00  0.00    -0.018 S 
BRANCH   2   4
ATOM      4  N   UNL     1       0.115  -4.181  -0.041  0.00  0.00    -0.296 N 
ATOM      5  H   UNL     1       0.099  -4.655   0.805  0.00  0.00    +0.154 HD
BRANCH   4  10
ATOM      6  C   UNL     1       0.536   1.477  -0.117  0.00  0.00    +0.044 C 
ATOM      7  C   UNL     1       0.425  -0.026  -0.096  0.00  0.00    -0.049 A 
ATOM      8  C   UNL     1      -0.400  -0.669  -1.001  0.00  0.00    +0.005 A 
ATOM      9  C   UNL     1      -0.505  -2.046  -0.985  0.00  0.00    +0.025 A 
ATOM     10  C   UNL     1       0.220  -2.786  -0.060  0.00  0.00    +0.051 A 
ATOM     11  C   UNL     1       1.048  -2.137   0.848  0.00  0.00    +0.062 A 
ATOM     12  C   UNL     1       1.152  -0.759   0.824  0.00  0.00    +0.025 A 
ATOM     13 CL   UNL     1       1.956  -3.057   2.007  0.00  0.00    -0.082 Cl
ENDBRANCH   4  10
ENDBRANCH   2   4
ENDBRANCH   1   2
BRANCH   1  14
ATOM     14  C   UNL     1      -0.207  -6.950  -2.439  0.00  0.00    +0.143 C 
BRANCH  14  15
ATOM     15  C   UNL     1       1.175  -7.377  -2.864  0.00  0.00    -0.012 A 
ATOM     16  C   UNL     1       2.260  -7.120  -2.047  0.00  0.00    +0.006 A 
ATOM     17  C   UNL     1       3.527  -7.511  -2.437  0.00  0.00    +0.000 A 
ATOM     18  C   UNL     1       3.710  -8.160  -3.644  0.00  0.00    +0.001 A 
ATOM     19  C   UNL     1       2.626  -8.418  -4.461  0.00  0.00    +0.020 A 
ATOM     20  C   UNL     1       1.357  -8.031  -4.069  0.00  0.00    +0.046 A 
ATOM     21 CL   UNL     1      -0.006  -8.360  -5.093  0.00  0.00    -0.083 Cl
ENDBRANCH  14  15
ENDBRANCH   1  14
BRANCH   1  22
ATOM     22  C   UNL     1      -0.210  -6.915   0.099  0.00  0.00    +0.181 C 
BRANCH  22  23
ATOM     23  C   UNL     1      -1.628  -6.861   0.606  0.00  0.00    +0.122 A 
ATOM     24  C   UNL     1      -2.591  -7.763   0.345  0.00  0.00    +0.046 A 
ATOM     25  C   UNL     1      -3.756  -7.324   1.016  0.00  0.00    +0.041 A 
ATOM     26  C   UNL     1      -3.434  -6.180   1.647  0.00  0.00    +0.195 A 
ATOM     27  O   UNL     1      -2.143  -5.908   1.400  0.00  0.00    -0.466 OA
ENDBRANCH  22  23
ENDBRANCH   1  22
TORSDOF 7
