REMARK  Name = ZINC33651471
REMARK  10 active torsions:
REMARK  status: ('A' for Active; 'I' for Inactive)
REMARK    1  A    between atoms: C_1  and  C_2
REMARK    2  A    between atoms: C_2  and  C_3
REMARK    3  A    between atoms: C_3  and  C_4
REMARK    4  A    between atoms: C_4  and  C_5
REMARK    5  A    between atoms: C_5  and  C_6
REMARK    6  A    between atoms: C_7  and  C_22
REMARK    7  A    between atoms: C_8  and  C_19
REMARK    8  A    between atoms: C_9  and  C_18
REMARK    9  A    between atoms: N_10  and  C_11
REMARK   10  A    between atoms: C_11  and  C_12
REMARK                            x       y       z     vdW  Elec       q    Type
REMARK                         _______ _______ _______ _____ _____    ______ ____
ROOT
ATOM      1  C   UNL     1      -4.235   2.433   1.124  0.00  0.00    +0.028 A 
ATOM      2  C   UNL     1      -4.807   2.545   2.352  0.00  0.00    +0.022 A 
ATOM      3  C   UNL     1      -4.185   1.502   3.188  0.00  0.00    +0.065 A 
ATOM      4  C   UNL     1      -3.295   0.851   2.380  0.00  0.00    +0.029 A 
ATOM      5  N   UNL     1      -3.328   1.415   1.157  0.00  0.00    -0.341 N 
ATOM      6  C   UNL     1      -2.418  -0.304   2.791  0.00  0.00    +0.064 C 
ENDROOT
BRANCH   3   7
ATOM      7  C   UNL     1      -4.468   1.215   4.602  0.00  0.00    +0.244 C 
ATOM      8  O   UNL     1      -5.337   0.418   4.899  0.00  0.00    -0.270 OA
ATOM      9  N   UNL     1      -3.765   1.837   5.569  0.00  0.00    -0.325 N 
ATOM     10  H   UNL     1      -3.977   1.623   6.627  0.00  0.00    +0.145 HD
ATOM     11  H   UNL     1      -2.979   2.558   5.301  0.00  0.00    +0.145 HD
ENDBRANCH   3   7
BRANCH   2  12
ATOM     12  C   UNL     1      -5.843   3.516   2.765  0.00  0.00    +0.022 A 
ATOM     13  C   UNL     1      -7.136   3.285   3.151  0.00  0.00    +0.016 A 
ATOM     14  C   UNL     1      -7.924   4.361   3.500  0.00  0.00    +0.008 A 
ATOM     15  C   UNL     1      -7.401   5.612   3.441  0.00  0.00    +0.046 A 
ATOM     16  S   UNL     1      -5.735   5.294   2.883  0.00  0.00    -0.097 S 
ENDBRANCH   2  12
BRANCH   1  17
ATOM     17  C   UNL     1      -4.550   3.289  -0.075  0.00  0.00    +0.054 C 
BRANCH  17  18
ATOM     18  C   UNL     1      -5.687   2.649  -0.875  0.00  0.00    +0.006 C 
BRANCH  18  19
ATOM     19  C   UNL     1      -6.007   3.520  -2.091  0.00  0.00    +0.000 C 
BRANCH  19  21
ATOM     20  C   UNL     1      -7.464   3.750  -4.108  0.00  0.00    +0.004 C 
ATOM     21  C   UNL     1      -7.144   2.880  -2.891  0.00  0.00    -0.003 C 
ENDBRANCH  19  21
ENDBRANCH  18  19
ENDBRANCH  17  18
ENDBRANCH   1  17
BRANCH   5  22
ATOM     22  C   UNL     1      -2.509   0.989   0.020  0.00  0.00    +0.177 C 
BRANCH  22  23
ATOM     23  C   UNL     1      -1.214   1.759   0.017  0.00  0.00    +0.061 A 
ATOM     24  C   UNL     1      -0.013   1.076   0.008  0.00  0.00    +0.025 A 
ATOM     25  C   UNL     1       1.173   1.794   0.001  0.00  0.00    +0.003 A 
ATOM     26  C   UNL     1       1.106   3.179   0.008  0.00  0.00    +0.020 A 
ATOM     27  C   UNL     1      -0.132   3.793   0.023  0.00  0.00    +0.111 A 
ATOM     28  N   UNL     1      -1.240   3.078   0.029  0.00  0.00    -0.258 NA
ENDBRANCH  22  23
ENDBRANCH   5  22
TORSDOF 8
