REMARK  Name = ZINC39304606
REMARK  10 active torsions:
REMARK  status: ('A' for Active; 'I' for Inactive)
REMARK    1  A    between atoms: C_1  and  C_2
REMARK    2  A    between atoms: C_2  and  O_3
REMARK    3  A    between atoms: O_3  and  C_4
REMARK    4  A    between atoms: C_4  and  C_6
REMARK    5  A    between atoms: C_6  and  C_27
REMARK    6  A    between atoms: N_10  and  C_12
REMARK    7  A    between atoms: C_12  and  C_13
REMARK    8  A    between atoms: N_18  and  C_21
REMARK    9  A    between atoms: C_27  and  C_28
REMARK   10  A    between atoms: C_31  and  C_34
REMARK                            x       y       z     vdW  Elec       q    Type
REMARK                         _______ _______ _______ _____ _____    ______ ____
ROOT
ATOM      1  C   UNL     1       1.433  -2.358  -2.549  0.00  0.00    +0.057 C 
ATOM      2  C   UNL     1       0.722  -1.891  -3.822  0.00  0.00    +0.015 C 
ATOM      3  C   UNL     1       1.401  -2.526  -5.038  0.00  0.00    -0.018 C 
ATOM      4  C   UNL     1       1.382  -4.049  -4.889  0.00  0.00    -0.078 C 
ATOM      5  N   UNL     1       2.100  -4.434  -3.668  0.00  0.00    +0.386 N 
ATOM      6  C   UNL     1       1.413  -3.887  -2.492  0.00  0.00    -0.060 C 
ATOM      7  H   UNL     1       3.041  -4.072  -3.704  0.00  0.00    -0.081 HD
ENDROOT
BRANCH   1   8
ATOM      8  C   UNL     1       0.725  -1.800  -1.342  0.00  0.00    +0.312 C 
ATOM      9  O   UNL     1       0.251  -2.548  -0.520  0.00  0.00    -0.250 OA
BRANCH   8  10
ATOM     10  O   UNL     1       0.619  -0.471  -1.181  0.00  0.00    -0.465 OA
BRANCH  10  12
ATOM     11  C   UNL     1      -0.084   1.518  -0.003  0.00  0.00    +0.048 C 
ATOM     12  C   UNL     1      -0.065  -0.012  -0.014  0.00  0.00    +0.229 C 
ENDBRANCH  10  12
ENDBRANCH   8  10
ENDBRANCH   1   8
BRANCH   5  13
ATOM     13  C   UNL     1       2.146  -5.899  -3.570  0.00  0.00    +0.019 C 
BRANCH  13  14
ATOM     14  C   UNL     1       2.965  -6.454  -4.706  0.00  0.00    +0.199 C 
ATOM     15  O   UNL     1       3.462  -5.702  -5.519  0.00  0.00    -0.278 OA
ATOM     16  N   UNL     1       3.145  -7.784  -4.821  0.00  0.00    -0.300 N 
ATOM     17  C   UNL     1       2.544  -8.707  -3.847  0.00  0.00    +0.126 C 
ATOM     18  C   UNL     1       1.692  -9.732  -4.605  0.00  0.00    +0.124 C 
ATOM     19  N   UNL     1       2.493 -10.287  -5.705  0.00  0.00    -0.327 N 
ATOM     20  C   UNL     1       3.094  -9.364  -6.679  0.00  0.00    +0.124 C 
ATOM     21  C   UNL     1       3.942  -8.339  -5.924  0.00  0.00    +0.126 C 
BRANCH  19  22
ATOM     22  C   UNL     1       2.680 -11.666  -5.824  0.00  0.00    +0.030 A 
ATOM     23  C   UNL     1       2.206 -12.520  -4.836  0.00  0.00    +0.023 A 
ATOM     24  C   UNL     1       2.392 -13.883  -4.956  0.00  0.00    +0.002 A 
ATOM     25  C   UNL     1       3.050 -14.398  -6.058  0.00  0.00    +0.000 A 
ATOM     26  C   UNL     1       3.523 -13.551  -7.043  0.00  0.00    +0.002 A 
ATOM     27  C   UNL     1       3.336 -12.187  -6.932  0.00  0.00    +0.023 A 
ENDBRANCH  19  22
ENDBRANCH  13  14
ENDBRANCH   5  13
BRANCH   1  28
ATOM     28  C   UNL     1       2.882  -1.867  -2.564  0.00  0.00    +0.051 C 
BRANCH  28  29
ATOM     29  C   UNL     1       2.902  -0.361  -2.622  0.00  0.00    -0.046 A 
ATOM     30  C   UNL     1       2.909   0.283  -3.845  0.00  0.00    +0.004 A 
ATOM     31  C   UNL     1       2.927   1.664  -3.899  0.00  0.00    +0.012 A 
ATOM     32  C   UNL     1       2.937   2.401  -2.730  0.00  0.00    +0.055 A 
ATOM     33  C   UNL     1       2.929   1.757  -1.507  0.00  0.00    +0.012 A 
ATOM     34  C   UNL     1       2.907   0.376  -1.453  0.00  0.00    +0.004 A 
BRANCH  32  35
ATOM     35  C   UNL     1       2.958   3.907  -2.788  0.00  0.00    +0.417 C 
ATOM     36  F   UNL     1       1.645   4.391  -2.807  0.00  0.00    -0.166 F 
ATOM     37  F   UNL     1       3.624   4.408  -1.665  0.00  0.00    -0.166 F 
ATOM     38  F   UNL     1       3.623   4.319  -3.948  0.00  0.00    -0.166 F 
ENDBRANCH  32  35
ENDBRANCH  28  29
ENDBRANCH   1  28
TORSDOF 9
