REMARK  Name = ZINC57762604
REMARK  11 active torsions:
REMARK  status: ('A' for Active; 'I' for Inactive)
REMARK    1  A    between atoms: C_1  and  C_2
REMARK    2  A    between atoms: C_2  and  C_3
REMARK    3  A    between atoms: C_5  and  C_11
REMARK    4  A    between atoms: C_8  and  O_9
REMARK    5  A    between atoms: O_9  and  C_10
REMARK    6  A    between atoms: C_11  and  C_12
REMARK    7  A    between atoms: C_12  and  C_14
REMARK    8  A    between atoms: C_12  and  C_16
REMARK    9  A    between atoms: C_14  and  N_15
REMARK   10  A    between atoms: C_19  and  O_23
REMARK   11  A    between atoms: O_23  and  C_24
REMARK                            x       y       z     vdW  Elec       q    Type
REMARK                         _______ _______ _______ _____ _____    ______ ____
ROOT
ATOM      1  C   UNL     1      -3.630  -3.411  -2.498  0.00  0.00    +0.006 C 
ENDROOT
BRANCH   1   2
ATOM      2  C   UNL     1      -4.260  -3.900  -3.777  0.00  0.00    -0.044 A 
ATOM      3  C   UNL     1      -3.893  -3.337  -4.986  0.00  0.00    +0.007 A 
ATOM      4  C   UNL     1      -4.469  -3.783  -6.160  0.00  0.00    +0.047 A 
ATOM      5  C   UNL     1      -5.416  -4.796  -6.126  0.00  0.00    +0.138 A 
ATOM      6  C   UNL     1      -5.783  -5.359  -4.912  0.00  0.00    +0.083 A 
ATOM      7  C   UNL     1      -5.199  -4.913  -3.740  0.00  0.00    +0.027 A 
ATOM      8 CL   UNL     1      -6.968  -6.627  -4.864  0.00  0.00    -0.080 Cl
BRANCH   5   9
ATOM      9  O   UNL     1      -5.985  -5.235  -7.280  0.00  0.00    -0.494 OA
ATOM     10  C   UNL     1      -5.560  -4.609  -8.492  0.00  0.00    +0.277 C 
ENDBRANCH   5   9
ENDBRANCH   1   2
BRANCH   1  11
ATOM     11  C   UNL     1      -3.934  -1.923  -2.316  0.00  0.00    +0.041 C 
BRANCH  11  14
ATOM     12  C   UNL     1      -7.324  -1.698  -0.672  0.00  0.00    -0.006 A 
ATOM     13  C   UNL     1      -5.966  -1.872  -0.857  0.00  0.00    +0.010 A 
ATOM     14  C   UNL     1      -5.416  -1.734  -2.118  0.00  0.00    -0.046 A 
ATOM     15  C   UNL     1      -6.222  -1.421  -3.196  0.00  0.00    +0.007 A 
ATOM     16  C   UNL     1      -7.581  -1.246  -3.017  0.00  0.00    +0.046 A 
ATOM     17  C   UNL     1      -8.136  -1.390  -1.754  0.00  0.00    +0.123 A 
BRANCH  12  19
ATOM     18  C   UNL     1      -8.149  -0.465   1.315  0.00  0.00    +0.009 C 
ATOM     19  C   UNL     1      -7.924  -1.849   0.702  0.00  0.00    +0.035 C 
ENDBRANCH  12  19
BRANCH  17  20
ATOM     20  O   UNL     1      -9.473  -1.225  -1.576  0.00  0.00    -0.495 OA
ATOM     21  C   UNL     1     -10.248  -0.909  -2.734  0.00  0.00    +0.277 C 
ENDBRANCH  17  20
ENDBRANCH  11  14
ENDBRANCH   1  11
BRANCH   1  22
ATOM     22  C   UNL     1      -2.115  -3.618  -2.565  0.00  0.00    -0.078 C 
BRANCH  22  23
ATOM     23  N   UNL     1      -1.516  -3.264  -1.271  0.00  0.00    +0.379 N 
ATOM     24  H   UNL     1      -1.640  -2.278  -1.101  0.00  0.00    -0.090 HD
ATOM     25  H   UNL     1      -1.965  -3.791  -0.537  0.00  0.00    -0.090 HD
ATOM     26  H   UNL     1      -0.530  -3.482  -1.286  0.00  0.00    -0.090 HD
ENDBRANCH  22  23
ENDBRANCH   1  22
TORSDOF 8
