REMARK  Name = ZINC12048257
REMARK  8 active torsions:
REMARK  status: ('A' for Active; 'I' for Inactive)
REMARK    1  A    between atoms: C_1  and  C_2
REMARK    2  A    between atoms: C_5  and  C_7
REMARK    3  A    between atoms: C_7  and  C_9
REMARK    4  A    between atoms: C_7  and  C_10
REMARK    5  A    between atoms: C_10  and  C_11
REMARK    6  A    between atoms: C_11  and  N_54
REMARK    7  A    between atoms: C_18  and  C_22
REMARK    8  A    between atoms: C_20  and  O_21
REMARK                            x       y       z     vdW  Elec       q    Type
REMARK                         _______ _______ _______ _____ _____    ______ ____
ROOT
ATOM      1  C   UNL     1      -0.013   1.086   0.008  0.00  0.00    -0.037 C 
ATOM      2  C   UNL     1      -0.681   1.554   1.283  0.00  0.00    +0.211 C 
ATOM      3  O   UNL     1      -1.990   0.989   1.408  0.00  0.00    -0.490 OA
ATOM      4  C   UNL     1      -2.981   1.673   0.775  0.00  0.00    +0.163 A 
ATOM      5  C   UNL     1      -3.028   1.704  -0.606  0.00  0.00    -0.018 A 
ATOM      6  C   UNL     1      -4.001   2.427  -1.261  0.00  0.00    +0.015 A 
ATOM      7  C   UNL     1      -4.959   3.122  -0.522  0.00  0.00    +0.004 A 
ATOM      8  C   UNL     1      -4.927   3.079   0.871  0.00  0.00    +0.059 A 
ATOM      9  C   UNL     1      -3.941   2.356   1.519  0.00  0.00    +0.159 A 
ATOM     10  C   UNL     1      -1.994   0.927  -1.399  0.00  0.00    -0.039 C 
ATOM     11  N   UNL     1      -0.683   1.591  -1.210  0.00  0.00    +0.385 N 
ATOM     12  H   UNL     1      -0.837   2.601  -1.106  0.00  0.00    -0.081 HD
ENDROOT
BRANCH   7  13
ATOM     13  C   UNL     1      -6.009   3.905  -1.217  0.00  0.00    +0.071 A 
ATOM     14  C   UNL     1      -6.898   4.681  -0.475  0.00  0.00    +0.028 A 
ATOM     15  C   UNL     1      -7.872   5.407  -1.137  0.00  0.00    +0.004 A 
ATOM     16  C   UNL     1      -7.926   5.333  -2.523  0.00  0.00    +0.020 A 
ATOM     17  C   UNL     1      -7.013   4.543  -3.196  0.00  0.00    +0.111 A 
ATOM     18  N   UNL     1      -6.091   3.867  -2.541  0.00  0.00    -0.255 NA
ENDBRANCH   7  13
BRANCH   9  19
ATOM     19  O   UNL     1      -3.909   2.312   2.878  0.00  0.00    -0.503 OA
ATOM     20  H   UNL     1      -3.383   3.015   3.282  0.00  0.00    +0.292 HD
ENDBRANCH   9  19
BRANCH  11  21
ATOM     21  C   UNL     1       0.174   1.358  -2.383  0.00  0.00    -0.078 C 
BRANCH  21  22
ATOM     22  C   UNL     1       0.374  -0.139  -2.629  0.00  0.00    -0.008 C 
BRANCH  22  23
ATOM     23  C   UNL     1       1.264  -0.340  -3.857  0.00  0.00    +0.050 C 
ATOM     24  C   UNL     1       2.661   0.214  -3.570  0.00  0.00    +0.015 C 
BRANCH  23  29
ATOM     25  C   UNL     1       2.220  -5.269  -3.376  0.00  0.00    +0.086 C 
ATOM     26  C   UNL     1       1.777  -3.954  -3.963  0.00  0.00    +0.102 A 
ATOM     27  C   UNL     1       1.246  -3.777  -5.187  0.00  0.00    +0.044 A 
ATOM     28  C   UNL     1       0.974  -2.396  -5.319  0.00  0.00    +0.045 A 
ATOM     29  C   UNL     1       1.361  -1.810  -4.172  0.00  0.00    +0.108 A 
ATOM     30  O   UNL     1       1.844  -2.759  -3.353  0.00  0.00    -0.465 OA
ENDBRANCH  23  29
ENDBRANCH  22  23
ENDBRANCH  21  22
ENDBRANCH  11  21
TORSDOF 6
