REMARK  Name = ZINC51439215
REMARK  9 active torsions:
REMARK  status: ('A' for Active; 'I' for Inactive)
REMARK    1  A    between atoms: C_1  and  C_2
REMARK    2  A    between atoms: C_2  and  C_3
REMARK    3  A    between atoms: C_2  and  C_4
REMARK    4  A    between atoms: C_2  and  N_5
REMARK    5  A    between atoms: N_5  and  C_6
REMARK    6  A    between atoms: C_6  and  C_7
REMARK    7  A    between atoms: C_12  and  N_13
REMARK    8  A    between atoms: N_13  and  C_14
REMARK    9  A    between atoms: N_13  and  C_15
REMARK                            x       y       z     vdW  Elec       q    Type
REMARK                         _______ _______ _______ _____ _____    ______ ____
ROOT
ATOM      1  C   UNL     1       3.052  -0.629  -2.681  0.00  0.00    -0.023 A 
ATOM      2  C   UNL     1       3.855  -1.754  -2.737  0.00  0.00    +0.022 A 
ATOM      3  C   UNL     1       4.350  -2.154  -3.972  0.00  0.00    +0.036 A 
ATOM      4  C   UNL     1       4.027  -1.423  -5.099  0.00  0.00    +0.128 A 
ATOM      5  N   UNL     1       3.258  -0.354  -5.014  0.00  0.00    -0.239 NA
ATOM      6  C   UNL     1       2.763   0.056  -3.857  0.00  0.00    +0.123 A 
ATOM      7 BR   UNL     1       5.453  -3.683  -4.109  0.00  0.00    -0.049 Br
ENDROOT
BRANCH   6   8
ATOM      8  N   UNL     1       1.951   1.184  -3.815  0.00  0.00    -0.315 N 
ATOM      9  C   UNL     1       0.514   1.063  -4.072  0.00  0.00    +0.131 C 
BRANCH   8  10
ATOM     10  C   UNL     1       2.534   2.494  -3.514  0.00  0.00    +0.075 C 
ATOM     11  C   UNL     1       1.837   3.112  -2.284  0.00  0.00    +0.022 C 
ATOM     12  C   UNL     1       1.761   4.624  -2.610  0.00  0.00    +0.002 C 
ATOM     13  C   UNL     1       1.458   4.631  -4.129  0.00  0.00    +0.002 C 
ATOM     14  C   UNL     1       2.293   3.460  -4.687  0.00  0.00    +0.022 C 
ENDBRANCH   8  10
ENDBRANCH   6   8
BRANCH   1  15
ATOM     15  C   UNL     1       2.492  -0.156  -1.364  0.00  0.00    -0.043 C 
BRANCH  15  16
ATOM     16  N   UNL     1       1.114  -0.643  -1.214  0.00  0.00    +0.385 N 
ATOM     17  H   UNL     1       1.098  -1.646  -1.325  0.00  0.00    -0.085 HD
ATOM     18  H   UNL     1       0.529  -0.217  -1.917  0.00  0.00    -0.085 HD
BRANCH  16  20
ATOM     19  C   UNL     1       0.637   1.230   0.289  0.00  0.00    -0.011 C 
ATOM     20  C   UNL     1       0.612  -0.290   0.120  0.00  0.00    -0.077 C 
ATOM     21  C   UNL     1       1.500  -0.936   1.186  0.00  0.00    -0.011 C 
ATOM     22  C   UNL     1      -0.823  -0.797   0.277  0.00  0.00    -0.011 C 
ENDBRANCH  16  20
ENDBRANCH  15  16
ENDBRANCH   1  15
TORSDOF 5
