REMARK  Name = ZINC00879574
REMARK  11 active torsions:
REMARK  status: ('A' for Active; 'I' for Inactive)
REMARK    1  A    between atoms: C_1  and  C_2
REMARK    2  A    between atoms: C_2  and  O_3
REMARK    3  A    between atoms: O_3  and  C_4
REMARK    4  A    between atoms: C_11  and  C_16
REMARK    5  A    between atoms: C_16  and  N_17
REMARK    6  A    between atoms: N_17  and  C_18
REMARK    7  A    between atoms: N_17  and  C_28
REMARK    8  A    between atoms: C_18  and  C_19
REMARK    9  A    between atoms: C_28  and  N_30
REMARK   10  A    between atoms: N_30  and  C_31
REMARK   11  A    between atoms: C_34  and  C_37
REMARK                            x       y       z     vdW  Elec       q    Type
REMARK                         _______ _______ _______ _____ _____    ______ ____
ROOT
ATOM      1  N   UNL     1      -0.118   0.062   0.249  0.00  0.00    -0.304 N 
ENDROOT
BRANCH   1   2
ATOM      2  C   UNL     1       0.900  -0.623   0.806  0.00  0.00    +0.138 C 
ATOM      3  S   UNL     1       0.751  -2.307   1.076  0.00  0.00    -0.018 S 
BRANCH   2   4
ATOM      4  N   UNL     1       2.035   0.017   1.150  0.00  0.00    -0.297 N 
ATOM      5  H   UNL     1       2.151   0.953   0.924  0.00  0.00    +0.154 HD
BRANCH   4   6
ATOM      6  C   UNL     1       3.045  -0.668   1.833  0.00  0.00    +0.033 A 
ATOM      7  C   UNL     1       2.720  -1.542   2.862  0.00  0.00    +0.023 A 
ATOM      8  C   UNL     1       3.720  -2.221   3.531  0.00  0.00    +0.005 A 
ATOM      9  C   UNL     1       5.043  -2.024   3.184  0.00  0.00    -0.050 A 
ATOM     10  C   UNL     1       5.371  -1.151   2.162  0.00  0.00    +0.005 A 
ATOM     11  C   UNL     1       4.375  -0.473   1.486  0.00  0.00    +0.023 A 
ATOM     12  C   UNL     1       6.132  -2.762   3.919  0.00  0.00    +0.044 C 
ENDBRANCH   4   6
ENDBRANCH   2   4
ENDBRANCH   1   2
BRANCH   1  13
ATOM     13  C   UNL     1      -1.352  -0.633  -0.125  0.00  0.00    +0.147 C 
BRANCH  13  21
ATOM     14  C   UNL     1      -0.234  -4.534  -4.812  0.00  0.00    +0.121 A 
ATOM     15  C   UNL     1      -0.563  -3.642  -5.830  0.00  0.00    +0.047 A 
ATOM     16  C   UNL     1      -0.973  -2.361  -5.536  0.00  0.00    +0.030 A 
ATOM     17  C   UNL     1      -1.063  -1.947  -4.211  0.00  0.00    +0.049 A 
ATOM     18  C   UNL     1      -0.732  -2.845  -3.179  0.00  0.00    +0.002 A 
ATOM     19  C   UNL     1      -0.317  -4.144  -3.490  0.00  0.00    +0.055 A 
ATOM     20  C   UNL     1      -0.827  -2.395  -1.789  0.00  0.00    +0.020 A 
ATOM     21  C   UNL     1      -1.240  -1.127  -1.545  0.00  0.00    +0.035 A 
ATOM     22  C   UNL     1      -1.560  -0.265  -2.616  0.00  0.00    +0.254 A 
ATOM     23  O   UNL     1      -1.926   0.872  -2.374  0.00  0.00    -0.268 OA
ATOM     24  N   UNL     1      -1.472  -0.667  -3.896  0.00  0.00    -0.322 N 
ATOM     25  H   UNL     1      -1.700  -0.050  -4.607  0.00  0.00    +0.169 HD
BRANCH  14  26
ATOM     26  O   UNL     1       0.170  -5.795  -5.121  0.00  0.00    -0.492 OA
BRANCH  26  28
ATOM     27  C   UNL     1       0.704  -7.582  -6.657  0.00  0.00    +0.048 C 
ATOM     28  C   UNL     1       0.233  -6.134  -6.507  0.00  0.00    +0.225 C 
ENDBRANCH  26  28
ENDBRANCH  14  26
ENDBRANCH  13  21
ENDBRANCH   1  13
BRANCH   1  29
ATOM     29  C   UNL     1       0.009   1.503   0.018  0.00  0.00    +0.142 C 
BRANCH  29  30
ATOM     30  C   UNL     1      -0.483   2.252   1.230  0.00  0.00    -0.026 A 
ATOM     31  C   UNL     1      -1.812   2.623   1.319  0.00  0.00    +0.009 A 
ATOM     32  C   UNL     1      -2.268   3.305   2.432  0.00  0.00    +0.050 A 
ATOM     33  C   UNL     1      -1.392   3.629   3.454  0.00  0.00    +0.166 A 
ATOM     34  C   UNL     1      -0.052   3.260   3.362  0.00  0.00    +0.167 A 
ATOM     35  C   UNL     1       0.397   2.571   2.247  0.00  0.00    +0.054 A 
ATOM     36  O   UNL     1       0.597   3.689   4.483  0.00  0.00    -0.453 OA
ATOM     37  C   UNL     1      -0.267   4.679   5.073  0.00  0.00    +0.466 C 
ATOM     38  O   UNL     1      -1.582   4.289   4.634  0.00  0.00    -0.453 OA
ENDBRANCH  29  30
ENDBRANCH   1  29
TORSDOF 9
