REMARK  Name = ZINC45327109
REMARK  3 active torsions:
REMARK  status: ('A' for Active; 'I' for Inactive)
REMARK    1  A    between atoms: C_6  and  C_7
REMARK    2  A    between atoms: N_10  and  C_14
REMARK    3  A    between atoms: C_14  and  N_15
REMARK                            x       y       z     vdW  Elec       q    Type
REMARK                         _______ _______ _______ _____ _____    ______ ____
ROOT
ATOM      1  C   UNL     1      -1.293  -0.775   0.010  0.00  0.00    +0.162 C 
ATOM      2  C   UNL     1      -1.653  -1.154   1.449  0.00  0.00    +0.122 C 
ATOM      3  N   UNL     1      -2.875  -1.971   1.444  0.00  0.00    -0.280 NA
ATOM      4  C   UNL     1      -2.688  -3.184   0.635  0.00  0.00    +0.114 C 
ATOM      5  C   UNL     1      -2.317  -2.784  -0.796  0.00  0.00    +0.176 C 
ATOM      6  O   UNL     1      -1.145  -1.965  -0.769  0.00  0.00    -0.369 OA
ENDROOT
BRANCH   1  12
ATOM      7  C   UNL     1      -0.017   1.378   0.010  0.00  0.00    +0.009 A 
ATOM      8  C   UNL     1       1.170   2.086   0.002  0.00  0.00    +0.039 A 
ATOM      9  C   UNL     1       2.379   1.410  -0.013  0.00  0.00    +0.123 A 
ATOM     10  C   UNL     1       2.396   0.026  -0.021  0.00  0.00    +0.039 A 
ATOM     11  C   UNL     1       1.208  -0.680  -0.013  0.00  0.00    +0.009 A 
ATOM     12  C   UNL     1       0.002  -0.004   0.002  0.00  0.00    -0.018 A 
ATOM     13  F   UNL     1       3.540   2.101  -0.021  0.00  0.00    -0.205 F 
ENDBRANCH   1  12
BRANCH   3  14
ATOM     14  C   UNL     1      -3.288  -2.309   2.812  0.00  0.00    +0.216 C 
BRANCH  14  15
ATOM     15  N   UNL     1      -4.729  -2.571   2.837  0.00  0.00    -0.261 N 
ATOM     16  C   UNL     1      -5.735  -1.630   3.056  0.00  0.00    +0.093 A 
ATOM     17  C   UNL     1      -5.724  -0.266   3.301  0.00  0.00    +0.049 A 
ATOM     18  C   UNL     1      -6.917   0.409   3.482  0.00  0.00    +0.043 A 
ATOM     19  C   UNL     1      -8.120  -0.274   3.420  0.00  0.00    +0.024 A 
ATOM     20  C   UNL     1      -8.137  -1.634   3.176  0.00  0.00    +0.050 A 
ATOM     21  C   UNL     1      -6.946  -2.318   2.993  0.00  0.00    +0.157 A 
ATOM     22  O   UNL     1      -6.657  -3.620   2.745  0.00  0.00    -0.407 OA
ATOM     23  C   UNL     1      -5.326  -3.764   2.647  0.00  0.00    +0.422 A 
ATOM     24  O   UNL     1      -4.748  -4.811   2.423  0.00  0.00    -0.223 OA
ATOM     25 CL   UNL     1      -6.907   2.118   3.789  0.00  0.00    -0.083 Cl
ENDBRANCH  14  15
ENDBRANCH   3  14
TORSDOF 3
