REMARK  Name = ZINC24035902
REMARK  8 active torsions:
REMARK  status: ('A' for Active; 'I' for Inactive)
REMARK    1  A    between atoms: C_1  and  C_2
REMARK    2  A    between atoms: C_2  and  C_23
REMARK    3  A    between atoms: N_3  and  N_4
REMARK    4  A    between atoms: N_4  and  C_5
REMARK    5  A    between atoms: C_8  and  N_20
REMARK    6  A    between atoms: C_10  and  S_11
REMARK    7  A    between atoms: S_11  and  N_14
REMARK    8  A    between atoms: C_32  and  O_33
REMARK                            x       y       z     vdW  Elec       q    Type
REMARK                         _______ _______ _______ _____ _____    ______ ____
ROOT
ATOM      1  C   UNL     1       0.551  -0.610   3.267  0.00  0.00    +0.075 A 
ATOM      2  C   UNL     1       0.911  -1.954   3.127  0.00  0.00    +0.029 A 
ATOM      3  C   UNL     1       1.452  -2.634   4.196  0.00  0.00    +0.035 A 
ATOM      4  C   UNL     1       1.639  -1.989   5.409  0.00  0.00    +0.128 A 
ATOM      5  C   UNL     1       1.284  -0.657   5.554  0.00  0.00    +0.063 A 
ATOM      6  C   UNL     1       0.748   0.036   4.490  0.00  0.00    +0.130 A 
ENDROOT
BRANCH   6   7
ATOM      7  S   UNL     1       0.304   1.731   4.675  0.00  0.00    +0.063 S 
ATOM      8  O   UNL     1       0.939   2.435   3.616  0.00  0.00    -0.153 OA
ATOM      9  O   UNL     1      -1.102   1.764   4.876  0.00  0.00    -0.153 OA
BRANCH   7  10
ATOM     10  N   UNL     1       0.995   2.268   6.081  0.00  0.00    -0.172 NA
ATOM     11  C   UNL     1       0.230   2.299   7.338  0.00  0.00    +0.137 C 
ATOM     12  C   UNL     1       1.056   1.601   8.424  0.00  0.00    +0.177 C 
ATOM     13  O   UNL     1       2.364   2.176   8.463  0.00  0.00    -0.377 OA
ATOM     14  C   UNL     1       3.113   2.008   7.258  0.00  0.00    +0.177 C 
ATOM     15  C   UNL     1       2.395   2.722   6.112  0.00  0.00    +0.137 C 
ENDBRANCH   7  10
ENDBRANCH   6   7
BRANCH   4  16
ATOM     16  N   UNL     1       2.221  -2.725   6.553  0.00  0.00    +0.056 N 
ATOM     17  O   UNL     1       2.559  -3.991   6.418  0.00  0.00    -0.126 OA
ATOM     18  O   UNL     1       2.400  -2.115   7.707  0.00  0.00    -0.126 OA
ENDBRANCH   4  16
BRANCH   1  19
ATOM     19  N   UNL     1       0.009   0.076   2.202  0.00  0.00    -0.236 N 
ATOM     20  H   UNL     1      -0.314   0.982   2.322  0.00  0.00    +0.174 HD
BRANCH  19  23
ATOM     21  C   UNL     1      -0.814   1.676   0.133  0.00  0.00    +0.068 C 
ATOM     22  C   UNL     1      -0.499   0.209  -0.011  0.00  0.00    +0.067 C 
ATOM     23  N   UNL     1      -0.068  -0.488   1.044  0.00  0.00    -0.187 NA
BRANCH  22  24
ATOM     24  C   UNL     1      -0.657  -0.420  -1.245  0.00  0.00    +0.039 A 
ATOM     25  C   UNL     1      -1.107   0.318  -2.364  0.00  0.00    +0.014 A 
ATOM     26  C   UNL     1      -1.265  -0.276  -3.567  0.00  0.00    +0.009 A 
ATOM     27  C   UNL     1      -0.975  -1.700  -3.744  0.00  0.00    -0.014 A 
ATOM     28  C   UNL     1      -1.141  -2.308  -4.989  0.00  0.00    +0.008 A 
ATOM     29  C   UNL     1      -0.862  -3.656  -5.141  0.00  0.00    +0.001 A 
ATOM     30  C   UNL     1      -0.419  -4.413  -4.068  0.00  0.00    +0.001 A 
ATOM     31  C   UNL     1      -0.247  -3.836  -2.825  0.00  0.00    +0.012 A 
ATOM     32  C   UNL     1      -0.523  -2.472  -2.647  0.00  0.00    +0.024 A 
ATOM     33  C   UNL     1      -0.348  -1.857  -1.388  0.00  0.00    +0.133 A 
BRANCH  33  34
ATOM     34  O   UNL     1       0.086  -2.569  -0.336  0.00  0.00    -0.506 OA
ATOM     35  H   UNL     1      -0.622  -2.977   0.181  0.00  0.00    +0.292 HD
ENDBRANCH  33  34
ENDBRANCH  22  24
ENDBRANCH  19  23
ENDBRANCH   1  19
TORSDOF 7
