REMARK  Name = ZINC39575950
REMARK  4 active torsions:
REMARK  status: ('A' for Active; 'I' for Inactive)
REMARK    1  A    between atoms: C_1  and  C_2
REMARK    2  A    between atoms: C_5  and  C_8
REMARK    3  A    between atoms: C_10  and  C_14
REMARK    4  A    between atoms: C_22  and  C_25
REMARK                            x       y       z     vdW  Elec       q    Type
REMARK                         _______ _______ _______ _____ _____    ______ ____
ROOT
ATOM      1  C   UNL     1       1.358  -7.180   0.973  0.00  0.00    +0.206 C 
ATOM      2  N   UNL     1       2.563  -6.504   0.425  0.00  0.00    -0.231 NA
ATOM      3  N   UNL     1       3.540  -7.602   0.299  0.00  0.00    -0.225 NA
ATOM      4  C   UNL     1       2.720  -8.721  -0.203  0.00  0.00    +0.234 C 
ATOM      5  N   UNL     1       1.382  -8.536   0.411  0.00  0.00    -0.207 N 
ATOM      6  N   UNL     1       0.409  -9.527   0.485  0.00  0.00    -0.184 NA
ATOM      7  C   UNL     1       0.639 -10.778   0.347  0.00  0.00    +0.076 C 
ATOM      8  C   UNL     1       1.954 -11.431   0.045  0.00  0.00    +0.129 C 
ATOM      9  S   UNL     1       3.349 -10.311   0.423  0.00  0.00    -0.114 S 
ATOM     10  H   UNL     1       2.367  -6.088  -0.473  0.00  0.00    +0.143 HD
ATOM     11  H   UNL     1       3.949  -7.827   1.193  0.00  0.00    +0.143 HD
ENDROOT
BRANCH   7  12
ATOM     12  C   UNL     1      -0.518 -11.678   0.505  0.00  0.00    +0.002 A 
ATOM     13  C   UNL     1      -0.354 -13.060   0.376  0.00  0.00    +0.013 A 
ATOM     14  C   UNL     1      -1.438 -13.899   0.524  0.00  0.00    +0.050 A 
ATOM     15  C   UNL     1      -2.693 -13.377   0.799  0.00  0.00    +0.166 A 
ATOM     16  C   UNL     1      -2.864 -12.000   0.929  0.00  0.00    +0.167 A 
ATOM     17  C   UNL     1      -1.781 -11.153   0.788  0.00  0.00    +0.059 A 
ATOM     18  O   UNL     1      -4.179 -11.747   1.196  0.00  0.00    -0.453 OA
ATOM     19  C   UNL     1      -4.884 -12.946   0.825  0.00  0.00    +0.466 C 
ATOM     20  O   UNL     1      -3.901 -13.986   0.987  0.00  0.00    -0.453 OA
ENDBRANCH   7  12
BRANCH   1  23
ATOM     21  C   UNL     1       0.061  -4.256  -0.021  0.00  0.00    +0.091 C 
ATOM     22  C   UNL     1       0.071  -5.030   1.081  0.00  0.00    +0.034 C 
ATOM     23  C   UNL     1       0.090  -6.445   0.530  0.00  0.00    +0.190 C 
ATOM     24  N   UNL     1       0.087  -6.239  -0.927  0.00  0.00    -0.176 NA
ATOM     25  N   UNL     1       0.065  -5.025  -1.142  0.00  0.00    -0.154 NA
BRANCH  21  30
ATOM     26  C   UNL     1      -0.018   1.503   0.010  0.00  0.00    +0.044 C 
ATOM     27  C   UNL     1       0.002  -0.004   0.002  0.00  0.00    -0.050 A 
ATOM     28  C   UNL     1       0.006  -0.686  -1.201  0.00  0.00    +0.004 A 
ATOM     29  C   UNL     1       0.025  -2.066  -1.215  0.00  0.00    +0.010 A 
ATOM     30  C   UNL     1       0.041  -2.772  -0.013  0.00  0.00    +0.002 A 
ATOM     31  C   UNL     1       0.037  -2.080   1.196  0.00  0.00    +0.010 A 
ATOM     32  C   UNL     1       0.023  -0.700   1.198  0.00  0.00    +0.004 A 
ENDBRANCH  21  30
ENDBRANCH   1  23
TORSDOF 3
