REMARK  Name = ZINC16772349
REMARK  8 active torsions:
REMARK  status: ('A' for Active; 'I' for Inactive)
REMARK    1  A    between atoms: C_1  and  C_2
REMARK    2  A    between atoms: C_2  and  C_4
REMARK    3  A    between atoms: C_2  and  O_15
REMARK    4  A    between atoms: N_6  and  C_7
REMARK    5  A    between atoms: C_8  and  C_12
REMARK    6  A    between atoms: O_15  and  C_16
REMARK    7  A    between atoms: C_16  and  C_18
REMARK    8  A    between atoms: C_19  and  C_20
REMARK                            x       y       z     vdW  Elec       q    Type
REMARK                         _______ _______ _______ _____ _____    ______ ____
ROOT
ATOM      1  C   UNL     1       7.698   0.745  -1.509  0.00  0.00    +0.062 C 
ATOM      2  C   UNL     1       7.279   1.007  -0.061  0.00  0.00    +0.259 C 
ENDROOT
BRANCH   2   3
ATOM      3  C   UNL     1       8.363   1.782   0.643  0.00  0.00    +0.258 C 
ATOM      4  O   UNL     1       8.121   2.874   1.112  0.00  0.00    -0.271 OA
ATOM      5  N   UNL     1       9.601   1.261   0.752  0.00  0.00    -0.276 N 
ATOM      6  H   UNL     1       9.794   0.387   0.378  0.00  0.00    +0.155 HD
BRANCH   5   7
ATOM      7  C   UNL     1      10.598   1.973   1.400  0.00  0.00    +0.084 A 
ATOM      8  C   UNL     1      11.921   1.605   1.617  0.00  0.00    +0.065 A 
ATOM      9  C   UNL     1      12.751   2.551   2.324  0.00  0.00    +0.022 A 
ATOM     10  C   UNL     1      12.173   3.699   2.721  0.00  0.00    +0.048 A 
ATOM     11  S   UNL     1      10.496   3.534   2.143  0.00  0.00    -0.081 S 
BRANCH   8  12
ATOM     12  C   UNL     1      12.449   0.321   1.146  0.00  0.00    +0.244 C 
ATOM     13  O   UNL     1      11.723  -0.453   0.549  0.00  0.00    -0.270 OA
ATOM     14  N   UNL     1      13.737  -0.003   1.373  0.00  0.00    -0.325 N 
ATOM     15  H   UNL     1      14.315   0.614   1.849  0.00  0.00    +0.145 HD
ATOM     16  H   UNL     1      14.086  -0.853   1.062  0.00  0.00    +0.145 HD
ENDBRANCH   8  12
ENDBRANCH   5   7
ENDBRANCH   2   3
BRANCH   2  17
ATOM     17  O   UNL     1       6.066   1.764  -0.045  0.00  0.00    -0.449 OA
BRANCH  17  18
ATOM     18  C   UNL     1       4.910   1.068  -0.038  0.00  0.00    +0.333 C 
ATOM     19  O   UNL     1       4.933  -0.148  -0.045  0.00  0.00    -0.246 OA
BRANCH  18  20
ATOM     20  C   UNL     1       3.631   1.776  -0.023  0.00  0.00    +0.092 C 
ATOM     21  C   UNL     1       2.475   1.081  -0.015  0.00  0.00    +0.015 C 
BRANCH  21  22
ATOM     22  C   UNL     1       1.188   1.793   0.000  0.00  0.00    -0.024 A 
ATOM     23  C   UNL     1       1.158   3.192   0.008  0.00  0.00    +0.008 A 
ATOM     24  C   UNL     1      -0.052   3.853   0.023  0.00  0.00    +0.002 A 
ATOM     25  C   UNL     1      -1.236   3.136   0.031  0.00  0.00    +0.015 A 
ATOM     26  C   UNL     1      -1.216   1.752   0.017  0.00  0.00    +0.018 A 
ATOM     27  C   UNL     1      -0.013   1.076   0.008  0.00  0.00    +0.023 A 
ATOM     28 BR   UNL     1      -2.841   0.784   0.019  0.00  0.00    -0.050 Br
ENDBRANCH  21  22
ENDBRANCH  18  20
ENDBRANCH  17  18
ENDBRANCH   2  17
TORSDOF 7
