REMARK  Name = ZINC09264381
REMARK  3 active torsions:
REMARK  status: ('A' for Active; 'I' for Inactive)
REMARK    1  A    between atoms: C_10  and  C_22
REMARK    2  A    between atoms: N_15  and  C_16
REMARK    3  A    between atoms: C_30  and  C_33
REMARK                            x       y       z     vdW  Elec       q    Type
REMARK                         _______ _______ _______ _____ _____    ______ ____
ROOT
ATOM      1  C   UNL     1       7.852   3.209   4.269  0.00  0.00    +0.002 A 
ATOM      2  C   UNL     1       8.978   2.702   3.646  0.00  0.00    +0.002 A 
ATOM      3  C   UNL     1       8.855   1.819   2.587  0.00  0.00    +0.025 A 
ATOM      4  C   UNL     1       7.593   1.442   2.157  0.00  0.00    +0.060 A 
ATOM      5  C   UNL     1       6.466   1.922   2.807  0.00  0.00    +0.053 A 
ATOM      6  C   UNL     1       6.590   2.822   3.852  0.00  0.00    +0.025 A 
ATOM      7  N   UNL     1       5.236   1.412   2.410  0.00  0.00    -0.316 N 
ATOM      8  C   UNL     1       4.683   1.593   1.185  0.00  0.00    +0.018 C 
ATOM      9  C   UNL     1       5.328   1.435   0.018  0.00  0.00    +0.040 C 
ATOM     10  C   UNL     1       6.779   1.050  -0.149  0.00  0.00    +0.184 C 
ATOM     11  N   UNL     1       7.418   0.590   1.066  0.00  0.00    -0.239 N 
ATOM     12  C   UNL     1       7.853  -0.684   1.144  0.00  0.00    +0.308 C 
ATOM     13  O   UNL     1       7.705  -1.435   0.200  0.00  0.00    -0.252 OA
ATOM     14  N   UNL     1       8.450  -1.124   2.269  0.00  0.00    -0.296 N 
ATOM     15  C   UNL     1       4.646   1.633  -1.206  0.00  0.00    +0.164 C 
ATOM     16  O   UNL     1       5.260   1.500  -2.247  0.00  0.00    -0.292 OA
ATOM     17  C   UNL     1       3.194   2.001  -1.266  0.00  0.00    +0.091 C 
ATOM     18  C   UNL     1       2.499   1.455  -0.013  0.00  0.00    +0.068 C 
ATOM     19  C   UNL     1       3.225   2.023   1.205  0.00  0.00    +0.063 C 
ATOM     20  H   UNL     1       4.737   0.887   3.056  0.00  0.00    +0.152 HD
ATOM     21  H   UNL     1       8.567  -0.525   3.023  0.00  0.00    +0.151 HD
ENDROOT
BRANCH  14  22
ATOM     22  C   UNL     1       8.921  -2.509   2.354  0.00  0.00    +0.074 C 
ATOM     23  C   UNL     1       7.767  -3.415   2.787  0.00  0.00    +0.022 C 
ATOM     24  C   UNL     1       8.260  -4.861   2.876  0.00  0.00    +0.002 C 
ATOM     25  C   UNL     1       9.392  -4.952   3.901  0.00  0.00    +0.000 C 
ATOM     26  C   UNL     1      10.546  -4.045   3.469  0.00  0.00    +0.002 C 
ATOM     27  C   UNL     1      10.053  -2.600   3.380  0.00  0.00    +0.022 C 
ENDBRANCH  14  22
BRANCH  10  28
ATOM     28  C   UNL     1       7.535   2.248  -0.663  0.00  0.00    +0.130 A 
ATOM     29  C   UNL     1       7.892   2.464  -1.942  0.00  0.00    +0.047 A 
ATOM     30  C   UNL     1       8.579   3.699  -1.972  0.00  0.00    +0.041 A 
ATOM     31  C   UNL     1       8.600   4.165  -0.711  0.00  0.00    +0.195 A 
ATOM     32  O   UNL     1       7.961   3.285   0.077  0.00  0.00    -0.466 OA
ENDBRANCH  10  28
BRANCH  18  33
ATOM     33  C   UNL     1       1.057   1.892   0.002  0.00  0.00    +0.109 A 
ATOM     34  C   UNL     1      -0.013   1.076   0.008  0.00  0.00    +0.045 A 
ATOM     35  C   UNL     1      -1.159   1.903   0.017  0.00  0.00    +0.041 A 
ATOM     36  C   UNL     1      -0.722   3.175   0.026  0.00  0.00    +0.195 A 
ATOM     37  O   UNL     1       0.621   3.162   0.013  0.00  0.00    -0.468 OA
ENDBRANCH  18  33
TORSDOF 3
