REMARK  Name = ZINC35214425
REMARK  10 active torsions:
REMARK  status: ('A' for Active; 'I' for Inactive)
REMARK    1  A    between atoms: C_1  and  C_2
REMARK    2  A    between atoms: C_2  and  C_3
REMARK    3  A    between atoms: C_2  and  C_4
REMARK    4  A    between atoms: C_2  and  C_5
REMARK    5  A    between atoms: C_8  and  C_11
REMARK    6  A    between atoms: C_14  and  C_24
REMARK    7  A    between atoms: C_18  and  C_20
REMARK    8  A    between atoms: C_20  and  C_21
REMARK    9  A    between atoms: C_20  and  C_22
REMARK   10  A    between atoms: C_20  and  C_23
REMARK                            x       y       z     vdW  Elec       q    Type
REMARK                         _______ _______ _______ _____ _____    ______ ____
ROOT
ATOM      1  C   UNL     1       3.014  -1.444  -5.084  0.00  0.00    +0.248 C 
ATOM      2  O   UNL     1       2.731  -2.521  -5.571  0.00  0.00    -0.270 OA
ATOM      3  N   UNL     1       4.193  -0.860  -5.378  0.00  0.00    -0.273 N 
ATOM      4  C   UNL     1       4.704   0.276  -4.616  0.00  0.00    +0.173 C 
ATOM      5  C   UNL     1       5.552   1.215  -5.525  0.00  0.00    +0.103 C 
ATOM      6  S   UNL     1       6.395  -0.081  -6.540  0.00  0.00    -0.135 S 
ATOM      7  C   UNL     1       5.045  -1.335  -6.484  0.00  0.00    +0.140 C 
ENDROOT
BRANCH   4   8
ATOM      8  C   UNL     1       5.566  -0.230  -3.488  0.00  0.00    +0.237 C 
ATOM      9  O   UNL     1       6.609   0.329  -3.225  0.00  0.00    -0.274 OA
ATOM     10  N   UNL     1       5.177  -1.304  -2.773  0.00  0.00    -0.300 N 
ATOM     11  C   UNL     1       4.072  -2.211  -3.120  0.00  0.00    +0.108 C 
ATOM     12  C   UNL     1       3.982  -3.271  -2.002  0.00  0.00    +0.020 C 
ATOM     13  C   UNL     1       4.673  -2.571  -0.802  0.00  0.00    +0.020 C 
ATOM     14  C   UNL     1       5.792  -1.768  -1.516  0.00  0.00    +0.108 C 
ENDBRANCH   4   8
BRANCH   1  18
ATOM     15  C   UNL     1       0.289   0.480  -2.454  0.00  0.00    -0.042 A 
ATOM     16  C   UNL     1      -0.189  -0.319  -3.477  0.00  0.00    +0.005 A 
ATOM     17  C   UNL     1       0.691  -0.947  -4.335  0.00  0.00    +0.013 A 
ATOM     18  C   UNL     1       2.066  -0.774  -4.169  0.00  0.00    +0.037 A 
ATOM     19  C   UNL     1       2.541   0.034  -3.134  0.00  0.00    +0.013 A 
ATOM     20  C   UNL     1       1.650   0.660  -2.287  0.00  0.00    +0.005 A 
BRANCH  15  22
ATOM     21  C   UNL     1      -0.490   2.678  -1.611  0.00  0.00    +0.015 C 
ATOM     22  C   UNL     1      -0.678   1.162  -1.521  0.00  0.00    -0.013 C 
ATOM     23  C   UNL     1      -0.415   0.700  -0.086  0.00  0.00    +0.015 C 
ATOM     24  C   UNL     1      -2.111   0.802  -1.919  0.00  0.00    +0.015 C 
ENDBRANCH  15  22
ENDBRANCH   1  18
BRANCH   7  25
ATOM     25  C   UNL     1       5.608  -2.724  -6.175  0.00  0.00    -0.010 C 
ATOM     26  C   UNL     1       4.466  -3.743  -6.149  0.00  0.00    +0.013 C 
ATOM     27  C   UNL     1       6.618  -3.118  -7.255  0.00  0.00    +0.013 C 
ATOM     28  C   UNL     1       6.302  -2.701  -4.812  0.00  0.00    +0.013 C 
ENDBRANCH   7  25
TORSDOF 4
