REMARK  Name = ZINC36157040
REMARK  10 active torsions:
REMARK  status: ('A' for Active; 'I' for Inactive)
REMARK    1  A    between atoms: C_3  and  C_6
REMARK    2  A    between atoms: C_6  and  O_7
REMARK    3  A    between atoms: O_7  and  C_8
REMARK    4  A    between atoms: C_8  and  C_9
REMARK    5  A    between atoms: C_9  and  C_11
REMARK    6  A    between atoms: C_9  and  O_35
REMARK    7  A    between atoms: C_11  and  N_12
REMARK    8  A    between atoms: N_12  and  C_13
REMARK    9  A    between atoms: N_12  and  C_29
REMARK   10  A    between atoms: C_13  and  C_14
REMARK                            x       y       z     vdW  Elec       q    Type
REMARK                         _______ _______ _______ _____ _____    ______ ____
ROOT
ATOM      1  N   UNL     1       7.834   0.807   4.441  0.00  0.00    +0.388 N 
ATOM      2  H   UNL     1       7.424   0.109   5.043  0.00  0.00    -0.081 HD
ENDROOT
BRANCH   1   3
ATOM      3  C   UNL     1       7.344   2.137   4.828  0.00  0.00    -0.068 C 
ATOM      4  C   UNL     1       8.004   3.200   3.948  0.00  0.00    -0.015 C 
ATOM      5  C   UNL     1       7.494   4.585   4.351  0.00  0.00    -0.002 C 
ATOM      6  C   UNL     1       7.841   4.849   5.818  0.00  0.00    -0.000 C 
ATOM      7  C   UNL     1       7.181   3.786   6.698  0.00  0.00    -0.002 C 
ATOM      8  C   UNL     1       7.691   2.401   6.294  0.00  0.00    -0.015 C 
ENDBRANCH   1   3
BRANCH   1   9
ATOM      9  C   UNL     1       7.457   0.533   3.047  0.00  0.00    -0.044 C 
BRANCH   9  10
ATOM     10  C   UNL     1       5.934   0.436   2.940  0.00  0.00    +0.124 C 
BRANCH  10  11
ATOM     11  O   UNL     1       5.473  -0.682   3.701  0.00  0.00    -0.391 OA
ATOM     12  H   UNL     1       5.834  -1.531   3.411  0.00  0.00    +0.210 HD
ENDBRANCH  10  11
BRANCH  10  13
ATOM     13  C   UNL     1       5.536   0.255   1.474  0.00  0.00    +0.189 C 
BRANCH  13  14
ATOM     14  O   UNL     1       4.112   0.281   1.360  0.00  0.00    -0.370 OA
BRANCH  14  15
ATOM     15  C   UNL     1       3.633   0.118   0.024  0.00  0.00    +0.234 C 
BRANCH  15  18
ATOM     16  C   UNL     1       0.022   0.849  -0.065  0.00  0.00    +0.041 A 
ATOM     17  C   UNL     1       1.372   1.266  -0.122  0.00  0.00    +0.047 A 
ATOM     18  C   UNL     1       2.127   0.162   0.021  0.00  0.00    +0.130 A 
ATOM     19  O   UNL     1       1.310  -0.895   0.162  0.00  0.00    -0.465 OA
ATOM     20  C   UNL     1       0.033  -0.485   0.111  0.00  0.00    +0.195 A 
ENDBRANCH  15  18
ENDBRANCH  14  15
ENDBRANCH  13  14
ENDBRANCH  10  13
ENDBRANCH   9  10
ENDBRANCH   1   9
BRANCH   1  21
ATOM     21  C   UNL     1       9.296   0.768   4.569  0.00  0.00    -0.003 C 
BRANCH  21  22
ATOM     22  C   UNL     1       9.668   0.525   6.010  0.00  0.00    +0.094 A 
ATOM     23  N   UNL     1      10.970   0.608   6.386  0.00  0.00    -0.312 N 
ATOM     24  H   UNL     1      11.643   0.823   5.722  0.00  0.00    +0.170 HD
ATOM     25  C   UNL     1      11.345   0.399   7.662  0.00  0.00    +0.260 A 
ATOM     26  O   UNL     1      12.518   0.478   7.984  0.00  0.00    -0.267 OA
ATOM     27  C   UNL     1      10.342   0.082   8.636  0.00  0.00    +0.075 A 
ATOM     28  C   UNL     1      10.513  -0.183  10.063  0.00  0.00    -0.023 A 
ATOM     29  C   UNL     1       9.399  -0.460  10.773  0.00  0.00    -0.004 A 
ATOM     30  S   UNL     1       8.075  -0.384   9.597  0.00  0.00    -0.073 S 
ATOM     31  C   UNL     1       9.025   0.019   8.153  0.00  0.00    +0.116 A 
ATOM     32  N   UNL     1       8.730   0.243   6.875  0.00  0.00    -0.229 NA
ATOM     33  C   UNL     1       9.307  -0.766  12.237  0.00  0.00    +0.043 C 
ATOM     34  C   UNL     1      10.717  -1.086  12.753  0.00  0.00    +0.005 C 
ATOM     35  C   UNL     1      11.681  -0.008  12.249  0.00  0.00    +0.005 C 
ATOM     36  C   UNL     1      11.881  -0.154  10.740  0.00  0.00    +0.037 C 
ENDBRANCH  21  22
ENDBRANCH   1  21
TORSDOF 10
