REMARK  Name = ZINC02290045
REMARK  7 active torsions:
REMARK  status: ('A' for Active; 'I' for Inactive)
REMARK    1  A    between atoms: C_1  and  C_2
REMARK    2  A    between atoms: C_2  and  C_3
REMARK    3  A    between atoms: C_3  and  S_4
REMARK    4  A    between atoms: S_4  and  C_5
REMARK    5  A    between atoms: N_14  and  C_15
REMARK    6  A    between atoms: C_20  and  O_21
REMARK    7  A    between atoms: O_21  and  C_22
REMARK                            x       y       z     vdW  Elec       q    Type
REMARK                         _______ _______ _______ _____ _____    ______ ____
ROOT
ATOM      1  C   UNL     1       1.797   5.866   1.495  0.00  0.00    +0.198 A 
ATOM      2  N   UNL     1       2.309   7.078   1.587  0.00  0.00    -0.120 NA
ATOM      3  N   UNL     1       3.522   7.090   0.882  0.00  0.00    -0.109 NA
ATOM      4  C   UNL     1       3.729   5.890   0.437  0.00  0.00    +0.245 A 
ATOM      5  N   UNL     1       2.577   5.146   0.655  0.00  0.00    -0.255 N 
ATOM      6  C   UNL     1       2.436   3.900   0.078  0.00  0.00    +0.068 A 
ATOM      7  C   UNL     1       3.558   3.300  -0.435  0.00  0.00    +0.048 A 
ATOM      8  C   UNL     1       4.767   4.016  -0.510  0.00  0.00    +0.264 A 
ATOM      9  O   UNL     1       5.803   3.480  -0.858  0.00  0.00    -0.267 OA
ATOM     10  N   UNL     1       4.827   5.336  -0.200  0.00  0.00    -0.242 N 
ATOM     11  C   UNL     1       3.451   1.889  -0.959  0.00  0.00    +0.007 C 
ATOM     12  C   UNL     1       4.817   1.204  -0.972  0.00  0.00    +0.012 C 
ATOM     13  C   UNL     1       4.663  -0.228  -1.498  0.00  0.00    +0.001 C 
ATOM     14  C   UNL     1       4.128  -0.179  -2.930  0.00  0.00    +0.000 C 
ATOM     15  C   UNL     1       2.770   0.523  -2.950  0.00  0.00    +0.001 C 
ATOM     16  C   UNL     1       2.905   1.938  -2.390  0.00  0.00    +0.012 C 
ATOM     17  C   UNL     1       2.495   1.078  -0.079  0.00  0.00    +0.047 C 
ATOM     18  C   UNL     1       1.167   1.784   0.001  0.00  0.00    -0.037 A 
ATOM     19  C   UNL     1       1.154   3.181   0.045  0.00  0.00    +0.003 A 
ATOM     20  C   UNL     1      -0.068   3.852   0.008  0.00  0.00    +0.010 A 
ATOM     21  C   UNL     1      -1.247   3.134   0.007  0.00  0.00    +0.001 A 
ATOM     22  C   UNL     1      -1.222   1.750   0.014  0.00  0.00    +0.000 A 
ATOM     23  C   UNL     1      -0.013   1.076   0.008  0.00  0.00    +0.004 A 
ENDROOT
BRANCH  10  24
ATOM     24  C   UNL     1       5.967   6.097  -0.489  0.00  0.00    +0.094 A 
ATOM     25  C   UNL     1       6.078   6.748  -1.710  0.00  0.00    +0.030 A 
ATOM     26  C   UNL     1       7.203   7.498  -1.992  0.00  0.00    +0.002 A 
ATOM     27  C   UNL     1       8.220   7.603  -1.062  0.00  0.00    +0.004 A 
ATOM     28  C   UNL     1       8.117   6.957   0.156  0.00  0.00    +0.048 A 
ATOM     29  C   UNL     1       6.990   6.206   0.450  0.00  0.00    +0.144 A 
BRANCH  29  30
ATOM     30  O   UNL     1       6.885   5.575   1.649  0.00  0.00    -0.493 OA
ATOM     31  C   UNL     1       7.973   5.732   2.563  0.00  0.00    +0.277 C 
ENDBRANCH  29  30
ENDBRANCH  10  24
BRANCH   1  32
ATOM     32  S   UNL     1       0.374   5.306   2.371  0.00  0.00    -0.086 S 
BRANCH  32  33
ATOM     33  C   UNL     1      -0.135   6.747   3.348  0.00  0.00    +0.077 C 
BRANCH  33  35
ATOM     34  C   UNL     1      -1.807   7.610   4.992  0.00  0.00    +0.004 C 
ATOM     35  C   UNL     1      -1.377   6.394   4.168  0.00  0.00    +0.008 C 
ENDBRANCH  33  35
ENDBRANCH  32  33
ENDBRANCH   1  32
TORSDOF 5
