REMARK  Name = ZINC23873221
REMARK  5 active torsions:
REMARK  status: ('A' for Active; 'I' for Inactive)
REMARK    1  A    between atoms: C_3  and  S_13
REMARK    2  A    between atoms: C_6  and  C_7
REMARK    3  A    between atoms: S_13  and  N_16
REMARK    4  A    between atoms: N_19  and  C_22
REMARK    5  A    between atoms: C_22  and  C_23
REMARK                            x       y       z     vdW  Elec       q    Type
REMARK                         _______ _______ _______ _____ _____    ______ ____
ROOT
ATOM      1  N   UNL     1       2.998   0.578  -1.598  0.00  0.00    -0.174 NA
ATOM      2  C   UNL     1       2.855  -0.643  -2.406  0.00  0.00    +0.125 C 
ATOM      3  C   UNL     1       2.173  -0.267  -3.731  0.00  0.00    +0.102 C 
ATOM      4  N   UNL     1       2.929   0.817  -4.373  0.00  0.00    -0.293 NA
ATOM      5  C   UNL     1       2.918   2.034  -3.551  0.00  0.00    +0.102 C 
ATOM      6  C   UNL     1       3.624   1.754  -2.221  0.00  0.00    +0.125 C 
ENDROOT
BRANCH   1   7
ATOM      7  S   UNL     1       2.476   0.625  -0.027  0.00  0.00    +0.061 S 
ATOM      8  O   UNL     1       3.224   1.644   0.620  0.00  0.00    -0.153 OA
ATOM      9  O   UNL     1       2.460  -0.719   0.435  0.00  0.00    -0.153 OA
BRANCH   7  12
ATOM     10  C   UNL     1      -1.539   0.673  -0.174  0.00  0.00    +0.006 A 
ATOM     11  C   UNL     1      -0.225   0.246  -0.150  0.00  0.00    +0.029 A 
ATOM     12  C   UNL     1       0.800   1.169  -0.052  0.00  0.00    +0.105 A 
ATOM     13  C   UNL     1       0.510   2.518   0.028  0.00  0.00    +0.029 A 
ATOM     14  C   UNL     1      -0.805   2.945   0.008  0.00  0.00    +0.006 A 
ATOM     15  C   UNL     1      -1.829   2.022  -0.091  0.00  0.00    -0.044 A 
BRANCH  15  16
ATOM     16  C   UNL     1      -3.263   2.487  -0.113  0.00  0.00    +0.019 C 
ATOM     17  C   UNL     1      -4.015   1.878   1.072  0.00  0.00    +0.008 C 
ATOM     18  C   UNL     1      -5.470   2.350   1.050  0.00  0.00    +0.001 C 
ATOM     19  C   UNL     1      -6.130   1.906  -0.257  0.00  0.00    +0.000 C 
ATOM     20  C   UNL     1      -5.378   2.516  -1.442  0.00  0.00    +0.001 C 
ATOM     21  C   UNL     1      -3.923   2.043  -1.420  0.00  0.00    +0.008 C 
ENDBRANCH  15  16
ENDBRANCH   7  12
ENDBRANCH   1   7
BRANCH   4  22
ATOM     22  C   UNL     1       2.415   1.089  -5.723  0.00  0.00    +0.158 C 
BRANCH  22  23
ATOM     23  C   UNL     1       3.368   2.004  -6.448  0.00  0.00    +0.126 A 
ATOM     24  N   UNL     1       3.005   2.478  -7.669  0.00  0.00    -0.194 NA
ATOM     25  C   UNL     1       3.846   3.303  -8.338  0.00  0.00    +0.288 A 
ATOM     26  O   UNL     1       3.550   3.744  -9.436  0.00  0.00    -0.265 OA
ATOM     27  C   UNL     1       5.060   3.633  -7.735  0.00  0.00    +0.102 A 
ATOM     28  C   UNL     1       5.411   3.130  -6.471  0.00  0.00    +0.060 A 
ATOM     29  N   UNL     1       4.488   2.306  -5.874  0.00  0.00    -0.341 N 
ATOM     30  C   UNL     1       6.659   3.541  -5.982  0.00  0.00    +0.034 A 
ATOM     31  C   UNL     1       7.437   4.366  -6.715  0.00  0.00    +0.048 A 
ATOM     32  S   UNL     1       6.453   4.636  -8.181  0.00  0.00    -0.090 S 
ATOM     33  H   UNL     1       4.724   1.899  -4.880  0.00  0.00    +0.167 HD
ENDBRANCH  22  23
ENDBRANCH   4  22
TORSDOF 5
