REMARK  Name = ZINC16729273
REMARK  10 active torsions:
REMARK  status: ('A' for Active; 'I' for Inactive)
REMARK    1  A    between atoms: C_1  and  C_2
REMARK    2  A    between atoms: C_2  and  C_3
REMARK    3  A    between atoms: C_6  and  C_9
REMARK    4  A    between atoms: C_11  and  C_18
REMARK    5  A    between atoms: C_12  and  C_17
REMARK    6  A    between atoms: C_18  and  O_20
REMARK    7  A    between atoms: O_20  and  C_21
REMARK    8  A    between atoms: C_21  and  C_22
REMARK    9  A    between atoms: C_22  and  C_23
REMARK   10  A    between atoms: C_22  and  C_24
REMARK                            x       y       z     vdW  Elec       q    Type
REMARK                         _______ _______ _______ _____ _____    ______ ____
ROOT
ATOM      1  C   UNL     1      -0.165   0.815   0.157  0.00  0.00    +0.141 C 
ATOM      2  C   UNL     1      -0.778   1.520   1.349  0.00  0.00    +0.078 C 
ATOM      3  C   UNL     1      -1.935   2.189   1.158  0.00  0.00    +0.019 C 
ATOM      4  N   UNL     1      -2.532   2.227  -0.069  0.00  0.00    -0.300 N 
ATOM      5  C   UNL     1      -2.036   1.623  -1.155  0.00  0.00    +0.135 C 
ATOM      6  S   UNL     1      -2.887   1.750  -2.635  0.00  0.00    -0.019 S 
ATOM      7  N   UNL     1      -0.888   0.917  -1.122  0.00  0.00    -0.315 N 
ATOM      8  C   UNL     1      -2.579   2.905   2.318  0.00  0.00    +0.061 C 
ATOM      9  H   UNL     1      -3.363   2.720  -0.158  0.00  0.00    +0.154 HD
ATOM     10  H   UNL     1      -0.546   0.487  -1.922  0.00  0.00    +0.149 HD
ENDROOT
BRANCH   1  14
ATOM     11  C   UNL     1       3.766   2.383  -0.424  0.00  0.00    -0.048 A 
ATOM     12  C   UNL     1       3.593   1.167   0.212  0.00  0.00    +0.004 A 
ATOM     13  C   UNL     1       2.321   0.660   0.400  0.00  0.00    +0.006 A 
ATOM     14  C   UNL     1       1.222   1.368  -0.048  0.00  0.00    -0.023 A 
ATOM     15  C   UNL     1       1.394   2.581  -0.688  0.00  0.00    +0.006 A 
ATOM     16  C   UNL     1       2.666   3.091  -0.871  0.00  0.00    +0.004 A 
BRANCH  11  18
ATOM     17  C   UNL     1       5.703   2.447  -1.970  0.00  0.00    +0.009 C 
ATOM     18  C   UNL     1       5.152   2.936  -0.629  0.00  0.00    +0.032 C 
ENDBRANCH  11  18
ENDBRANCH   1  14
BRANCH   2  19
ATOM     19  C   UNL     1      -0.160   1.479   2.620  0.00  0.00    +0.339 C 
ATOM     20  O   UNL     1       0.919   0.932   2.755  0.00  0.00    -0.245 OA
BRANCH  19  21
ATOM     21  O   UNL     1      -0.766   2.046   3.684  0.00  0.00    -0.461 OA
BRANCH  21  22
ATOM     22  C   UNL     1      -0.036   2.067   4.912  0.00  0.00    +0.235 C 
BRANCH  22  23
ATOM     23  C   UNL     1      -0.827   2.848   5.963  0.00  0.00    +0.020 C 
ATOM     24  C   UNL     1      -2.144   2.125   6.252  0.00  0.00    +0.010 C 
ATOM     25  C   UNL     1      -0.007   2.946   7.251  0.00  0.00    +0.010 C 
ENDBRANCH  22  23
ENDBRANCH  21  22
ENDBRANCH  19  21
ENDBRANCH   2  19
TORSDOF 6
