REMARK  Name = ZINC06844008
REMARK  10 active torsions:
REMARK  status: ('A' for Active; 'I' for Inactive)
REMARK    1  A    between atoms: C_1  and  C_2
REMARK    2  A    between atoms: C_5  and  O_9
REMARK    3  A    between atoms: C_6  and  C_8
REMARK    4  A    between atoms: O_9  and  C_10
REMARK    5  A    between atoms: C_10  and  C_11
REMARK    6  A    between atoms: N_13  and  N_14
REMARK    7  A    between atoms: C_15  and  C_17
REMARK    8  A    between atoms: C_17  and  O_18
REMARK    9  A    between atoms: O_18  and  C_19
REMARK   10  A    between atoms: C_22  and  N_25
REMARK                            x       y       z     vdW  Elec       q    Type
REMARK                         _______ _______ _______ _____ _____    ______ ____
ROOT
ATOM      1  N   UNL     1       5.213  -2.707  -0.062  0.00  0.00    -0.231 N 
ATOM      2  C   UNL     1       5.410  -4.041  -0.071  0.00  0.00    +0.267 C 
ATOM      3  O   UNL     1       4.459  -4.794  -0.066  0.00  0.00    -0.271 OA
ATOM      4  H   UNL     1       5.973  -2.105  -0.066  0.00  0.00    +0.173 HD
ENDROOT
BRANCH   1   7
ATOM      5  C   UNL     1       3.714  -0.858  -0.038  0.00  0.00    +0.267 C 
ATOM      6  O   UNL     1       4.664  -0.105  -0.043  0.00  0.00    -0.271 OA
ATOM      7  N   UNL     1       3.910  -2.192  -0.047  0.00  0.00    -0.231 N 
ATOM      8  H   UNL     1       3.150  -2.794  -0.043  0.00  0.00    +0.173 HD
BRANCH   5   9
ATOM      9  C   UNL     1       2.313  -0.303  -0.022  0.00  0.00    +0.326 C 
BRANCH   9  10
ATOM     10  O   UNL     1       2.366   1.125  -0.015  0.00  0.00    -0.482 OA
BRANCH  10  15
ATOM     11  C   UNL     1      -2.553   3.867   0.046  0.00  0.00    +0.044 C 
ATOM     12  C   UNL     1      -1.237   3.133   0.030  0.00  0.00    -0.050 A 
ATOM     13  C   UNL     1      -1.218   1.751   0.017  0.00  0.00    +0.007 A 
ATOM     14  C   UNL     1      -0.013   1.076   0.008  0.00  0.00    +0.046 A 
ATOM     15  C   UNL     1       1.179   1.786   0.000  0.00  0.00    +0.124 A 
ATOM     16  C   UNL     1       1.157   3.173   0.008  0.00  0.00    -0.009 A 
ATOM     17  C   UNL     1      -0.051   3.844   0.022  0.00  0.00    +0.010 A 
ATOM     18  C   UNL     1       2.449   3.948  -0.000  0.00  0.00    +0.047 C 
ENDBRANCH  10  15
ENDBRANCH   9  10
ENDBRANCH   5   9
ENDBRANCH   1   7
BRANCH   2  19
ATOM     19  C   UNL     1       6.811  -4.596  -0.087  0.00  0.00    +0.326 C 
BRANCH  19  20
ATOM     20  O   UNL     1       6.757  -6.024  -0.095  0.00  0.00    -0.483 OA
BRANCH  20  21
ATOM     21  C   UNL     1       7.944  -6.685  -0.110  0.00  0.00    +0.121 A 
ATOM     22  C   UNL     1       9.136  -5.975  -0.123  0.00  0.00    +0.048 A 
ATOM     23  C   UNL     1      10.341  -6.650  -0.133  0.00  0.00    +0.036 A 
ATOM     24  C   UNL     1      10.360  -8.032  -0.141  0.00  0.00    +0.126 A 
ATOM     25  C   UNL     1       9.174  -8.743  -0.133  0.00  0.00    +0.036 A 
ATOM     26  C   UNL     1       7.966  -8.072  -0.117  0.00  0.00    +0.048 A 
BRANCH  24  27
ATOM     27  N   UNL     1      11.653  -8.753  -0.157  0.00  0.00    +0.056 N 
ATOM     28  O   UNL     1      11.671  -9.971  -0.163  0.00  0.00    -0.126 OA
ATOM     29  O   UNL     1      12.698  -8.128  -0.164  0.00  0.00    -0.126 OA
ENDBRANCH  24  27
ENDBRANCH  20  21
ENDBRANCH  19  20
ENDBRANCH   2  19
TORSDOF 8
