REMARK  Name = ZINC02102812
REMARK  10 active torsions:
REMARK  status: ('A' for Active; 'I' for Inactive)
REMARK    1  A    between atoms: C_1  and  C_2
REMARK    2  A    between atoms: C_3  and  C_33
REMARK    3  A    between atoms: C_9  and  C_32
REMARK    4  A    between atoms: C_10  and  C_16
REMARK    5  A    between atoms: C_16  and  C_17
REMARK    6  A    between atoms: C_17  and  C_18
REMARK    7  A    between atoms: N_20  and  CA_21
REMARK    8  A    between atoms: CA_21  and  CB_23
REMARK    9  A    between atoms: CA_21  and  C_30
REMARK   10  A    between atoms: CB_23  and  CG_24
REMARK                            x       y       z     vdW  Elec       q    Type
REMARK                         _______ _______ _______ _____ _____    ______ ____
ROOT
ATOM      1  C   UNK A   0      -0.091   0.922  -5.676  0.00  0.00    +0.048 C 
ATOM      2  C   UNK A   0      -0.064  -0.465  -5.087  0.00  0.00    -0.002 A 
ATOM      3  C   UNK A   0      -0.058  -1.623  -5.758  0.00  0.00    +0.106 A 
ATOM      4  O   UNK A   0      -0.032  -2.659  -4.900  0.00  0.00    -0.460 OA
ATOM      5  C   UNK A   0      -0.020  -2.227  -3.622  0.00  0.00    +0.139 A 
ATOM      6  C   UNK A   0      -0.039  -0.818  -3.660  0.00  0.00    +0.024 A 
ATOM      7  C   UNK A   0      -0.032  -0.081  -2.484  0.00  0.00    +0.023 A 
ATOM      8  C   UNK A   0      -0.006  -0.750  -1.260  0.00  0.00    +0.022 A 
ATOM      9  C   UNK A   0       0.002  -0.004   0.002  0.00  0.00    -0.030 A 
ATOM     10  C   UNK A   0       0.023  -0.707   1.163  0.00  0.00    +0.041 A 
ATOM     11  C   UNK A   0       0.041  -2.118   1.129  0.00  0.00    +0.341 A 
ATOM     12  O   UNK A   0       0.059  -2.736   2.178  0.00  0.00    -0.245 OA
ATOM     13  O   UNK A   0       0.039  -2.796  -0.029  0.00  0.00    -0.422 OA
ATOM     14  C   UNK A   0       0.019  -2.160  -1.222  0.00  0.00    +0.143 A 
ATOM     15  C   UNK A   0       0.017  -2.884  -2.401  0.00  0.00    +0.093 A 
ATOM     16  C   UNK A   0      -0.018   1.503   0.010  0.00  0.00    +0.045 C 
ATOM     17  C   UNK A   0      -0.077  -1.749  -7.259  0.00  0.00    +0.086 C 
ENDROOT
BRANCH  10  18
ATOM     18  C   UNK A   0       0.026   0.017   2.485  0.00  0.00    +0.052 C 
BRANCH  18  19
ATOM     19  C   UNK A   0      -1.415   0.243   2.946  0.00  0.00    +0.100 C 
BRANCH  19  20
ATOM     20  C   UNK A   0      -1.411   0.967   4.268  0.00  0.00    +0.214 C 
ATOM     21  O   UNK A   0      -0.359   1.272   4.790  0.00  0.00    -0.276 OA
ATOM     22  N   PHE A   1      -2.576   1.275   4.871  0.00  0.00    -0.302 N 
ATOM     23  H   PHE A   1      -3.417   1.031   4.453  0.00  0.00    +0.150 HD
BRANCH  22  24
ATOM     24  CA  PHE A   1      -2.573   1.979   6.155  0.00  0.00    +0.191 C 
BRANCH  24  25
ATOM     25  C   PHE A   1      -2.425   0.980   7.275  0.00  0.00    +0.376 C 
ATOM     26  O   PHE A   1      -2.332  -0.198   7.024  0.00  0.00    -0.244 OA
ATOM     27  OXT PHE A   1      -2.397   1.400   8.549  0.00  0.00    -0.244 OA
ENDBRANCH  24  25
BRANCH  24  28
ATOM     28  CB  PHE A   1      -3.889   2.741   6.323  0.00  0.00    +0.069 C 
BRANCH  28  29
ATOM     29  CG  PHE A   1      -3.979   3.822   5.277  0.00  0.00    -0.045 A 
ATOM     30  CD2 PHE A   1      -3.487   5.086   5.544  0.00  0.00    +0.004 A 
ATOM     31  CE2 PHE A   1      -3.566   6.076   4.583  0.00  0.00    +0.000 A 
ATOM     32  CZ  PHE A   1      -4.147   5.806   3.358  0.00  0.00    +0.000 A 
ATOM     33  CE1 PHE A   1      -4.644   4.543   3.092  0.00  0.00    +0.000 A 
ATOM     34  CD1 PHE A   1      -4.560   3.552   4.052  0.00  0.00    +0.004 A 
ENDBRANCH  28  29
ENDBRANCH  24  28
ENDBRANCH  22  24
ENDBRANCH  19  20
ENDBRANCH  18  19
ENDBRANCH  10  18
TORSDOF 7
