REMARK  Name = ZINC35490618
REMARK  11 active torsions:
REMARK  status: ('A' for Active; 'I' for Inactive)
REMARK    1  A    between atoms: C_1  and  C_2
REMARK    2  A    between atoms: C_2  and  C_3
REMARK    3  A    between atoms: C_3  and  C_4
REMARK    4  A    between atoms: C_4  and  N_5
REMARK    5  A    between atoms: C_14  and  C_16
REMARK    6  A    between atoms: C_18  and  C_29
REMARK    7  A    between atoms: N_19  and  C_22
REMARK    8  A    between atoms: C_20  and  C_21
REMARK    9  A    between atoms: C_25  and  C_28
REMARK   10  A    between atoms: C_32  and  O_35
REMARK   11  A    between atoms: O_35  and  C_36
REMARK                            x       y       z     vdW  Elec       q    Type
REMARK                         _______ _______ _______ _____ _____    ______ ____
ROOT
ATOM      1  C   UNL     1       5.384  -6.895  -7.200  0.00  0.00    +0.058 A 
ATOM      2  C   UNL     1       4.792  -7.977  -6.496  0.00  0.00    +0.041 A 
ATOM      3  C   UNL     1       4.895  -9.075  -7.288  0.00  0.00    +0.055 A 
ATOM      4  N   UNL     1       5.528  -8.714  -8.454  0.00  0.00    -0.312 N 
ATOM      5  C   UNL     1       5.822  -7.391  -8.409  0.00  0.00    +0.033 A 
ATOM      6  C   UNL     1       6.512  -6.601  -9.491  0.00  0.00    +0.064 C 
ENDROOT
BRANCH   1  16
ATOM      7  N   UNL     1       1.111  -1.410  -5.735  0.00  0.00    -0.299 N 
ATOM      8  C   UNL     1       1.056  -2.734  -5.981  0.00  0.00    +0.302 C 
ATOM      9  O   UNL     1       0.031  -3.351  -5.764  0.00  0.00    -0.253 OA
ATOM     10  N   UNL     1       2.138  -3.375  -6.466  0.00  0.00    -0.283 N 
ATOM     11  C   UNL     1       3.418  -2.670  -6.619  0.00  0.00    +0.128 C 
ATOM     12  C   UNL     1       4.499  -3.448  -5.857  0.00  0.00    +0.127 C 
ATOM     13  N   UNL     1       4.419  -4.864  -6.243  0.00  0.00    -0.294 N 
ATOM     14  C   UNL     1       3.139  -5.568  -6.091  0.00  0.00    +0.127 C 
ATOM     15  C   UNL     1       2.059  -4.792  -6.847  0.00  0.00    +0.128 C 
ATOM     16  C   UNL     1       5.501  -5.504  -6.729  0.00  0.00    +0.248 C 
ATOM     17  O   UNL     1       6.574  -4.934  -6.779  0.00  0.00    -0.270 OA
ATOM     18  H   UNL     1       1.948  -0.932  -5.838  0.00  0.00    +0.150 HD
BRANCH   7  19
ATOM     19  C   UNL     1      -0.094  -0.694  -5.310  0.00  0.00    +0.106 C 
BRANCH  19  20
ATOM     20  C   UNL     1       0.239   0.785  -5.100  0.00  0.00    +0.018 C 
BRANCH  20  22
ATOM     21  C   UNL     1      -0.686   3.012  -4.446  0.00  0.00    +0.004 C 
ATOM     22  C   UNL     1      -1.020   1.534  -4.657  0.00  0.00    -0.002 C 
ENDBRANCH  20  22
ENDBRANCH  19  20
ENDBRANCH   7  19
ENDBRANCH   1  16
BRANCH   4  23
ATOM     23  C   UNL     1       5.817  -9.574  -9.522  0.00  0.00    +0.047 A 
ATOM     24  C   UNL     1       6.785 -10.559  -9.378  0.00  0.00    +0.026 A 
ATOM     25  C   UNL     1       7.069 -11.406 -10.431  0.00  0.00    +0.005 A 
ATOM     26  C   UNL     1       6.389 -11.274 -11.629  0.00  0.00    -0.050 A 
ATOM     27  C   UNL     1       5.425 -10.294 -11.775  0.00  0.00    +0.005 A 
ATOM     28  C   UNL     1       5.133  -9.447 -10.723  0.00  0.00    +0.026 A 
ATOM     29  C   UNL     1       6.701 -12.199 -12.777  0.00  0.00    +0.044 C 
ENDBRANCH   4  23
BRANCH   3  30
ATOM     30  C   UNL     1       4.409 -10.431  -6.952  0.00  0.00    -0.001 A 
ATOM     31  C   UNL     1       4.188 -11.365  -7.965  0.00  0.00    +0.013 A 
ATOM     32  C   UNL     1       3.735 -12.628  -7.648  0.00  0.00    +0.046 A 
ATOM     33  C   UNL     1       3.498 -12.971  -6.324  0.00  0.00    +0.120 A 
ATOM     34  C   UNL     1       3.716 -12.044  -5.314  0.00  0.00    +0.046 A 
ATOM     35  C   UNL     1       4.175 -10.780  -5.622  0.00  0.00    +0.013 A 
BRANCH  33  36
ATOM     36  O   UNL     1       3.051 -14.216  -6.016  0.00  0.00    -0.495 OA
ATOM     37  C   UNL     1       2.828 -14.502  -4.633  0.00  0.00    +0.277 C 
ENDBRANCH  33  36
ENDBRANCH   3  30
TORSDOF 7
