REMARK  Name = ZINC06563484
REMARK  9 active torsions:
REMARK  status: ('A' for Active; 'I' for Inactive)
REMARK    1  A    between atoms: C_1  and  C_2
REMARK    2  A    between atoms: C_2  and  C_3
REMARK    3  A    between atoms: C_2  and  C_4
REMARK    4  A    between atoms: C_2  and  C_5
REMARK    5  A    between atoms: C_8  and  C_11
REMARK    6  A    between atoms: N_13  and  C_14
REMARK    7  A    between atoms: C_14  and  N_16
REMARK    8  A    between atoms: N_16  and  N_17
REMARK    9  A    between atoms: C_18  and  C_20
REMARK                            x       y       z     vdW  Elec       q    Type
REMARK                         _______ _______ _______ _____ _____    ______ ____
ROOT
ATOM      1  C   UNL     1       2.369   1.025  -0.015  0.00  0.00    +0.153 C 
ATOM      2  S   UNL     1       3.840   1.901  -0.024  0.00  0.00    -0.017 S 
ENDROOT
BRANCH   1   5
ATOM      3  C   UNL     1       3.563  -0.981  -0.037  0.00  0.00    +0.250 C 
ATOM      4  O   UNL     1       4.607  -0.359  -0.044  0.00  0.00    -0.270 OA
ATOM      5  N   UNL     1       2.387  -0.323  -0.022  0.00  0.00    -0.263 N 
ATOM      6  H   UNL     1       1.554  -0.819  -0.017  0.00  0.00    +0.157 HD
BRANCH   3  10
ATOM      7  C   UNL     1       3.621  -5.227  -0.061  0.00  0.00    -0.042 A 
ATOM      8  C   UNL     1       4.811  -4.522  -0.068  0.00  0.00    +0.005 A 
ATOM      9  C   UNL     1       4.800  -3.143  -0.061  0.00  0.00    +0.013 A 
ATOM     10  C   UNL     1       3.583  -2.458  -0.045  0.00  0.00    +0.037 A 
ATOM     11  C   UNL     1       2.386  -3.176  -0.032  0.00  0.00    +0.013 A 
ATOM     12  C   UNL     1       2.412  -4.555  -0.045  0.00  0.00    +0.005 A 
BRANCH   7  14
ATOM     13  C   UNL     1       4.381  -7.241   1.170  0.00  0.00    +0.015 C 
ATOM     14  C   UNL     1       3.641  -6.734  -0.070  0.00  0.00    -0.013 C 
ATOM     15  C   UNL     1       2.206  -7.264  -0.059  0.00  0.00    +0.015 C 
ATOM     16  C   UNL     1       4.357  -7.227  -1.329  0.00  0.00    +0.015 C 
ENDBRANCH   7  14
ENDBRANCH   3  10
ENDBRANCH   1   5
BRANCH   1  17
ATOM     17  N   UNL     1       1.193   1.683  -0.000  0.00  0.00    -0.245 N 
ATOM     18  H   UNL     1       1.179   2.653   0.005  0.00  0.00    +0.172 HD
BRANCH  17  19
ATOM     19  N   UNL     1      -0.011   0.966   0.007  0.00  0.00    -0.231 N 
ATOM     20  C   UNL     1      -1.187   1.624   0.017  0.00  0.00    +0.260 C 
ATOM     21  O   UNL     1      -1.204   2.839   0.023  0.00  0.00    -0.269 OA
ATOM     22  H   UNL     1       0.002  -0.004   0.002  0.00  0.00    +0.173 HD
BRANCH  20  23
ATOM     23  C   UNL     1      -2.458   0.867   0.018  0.00  0.00    +0.040 A 
ATOM     24  C   UNL     1      -2.442  -0.529   0.005  0.00  0.00    +0.013 A 
ATOM     25  C   UNL     1      -3.630  -1.229   0.011  0.00  0.00    +0.002 A 
ATOM     26  C   UNL     1      -4.837  -0.552   0.021  0.00  0.00    +0.020 A 
ATOM     27  C   UNL     1      -4.860   0.833   0.029  0.00  0.00    +0.042 A 
ATOM     28  C   UNL     1      -3.677   1.546   0.028  0.00  0.00    +0.033 A 
ATOM     29 CL   UNL     1      -6.378   1.674   0.041  0.00  0.00    -0.084 Cl
ENDBRANCH  20  23
ENDBRANCH  17  19
ENDBRANCH   1  17
TORSDOF 6
