REMARK  Name = ZINC37281529
REMARK  3 active torsions:
REMARK  status: ('A' for Active; 'I' for Inactive)
REMARK    1  A    between atoms: C_5  and  C_8
REMARK    2  A    between atoms: C_8  and  N_9
REMARK    3  A    between atoms: N_9  and  C_10
REMARK                            x       y       z     vdW  Elec       q    Type
REMARK                         _______ _______ _______ _____ _____    ______ ____
ROOT
ATOM      1  N   UNL     1       1.250  -2.683   1.356  0.00  0.00    -0.338 N 
ATOM      2  H   UNL     1       1.249  -2.057   2.097  0.00  0.00    +0.146 HD
ENDROOT
BRANCH   1   3
ATOM      3  C   UNL     1       1.271  -4.061   1.604  0.00  0.00    +0.050 A 
ATOM      4  C   UNL     1       1.279  -4.957   0.544  0.00  0.00    +0.074 A 
ATOM      5  C   UNL     1       1.300  -6.319   0.789  0.00  0.00    +0.168 A 
ATOM      6  C   UNL     1       1.314  -6.789   2.101  0.00  0.00    +0.168 A 
ATOM      7  C   UNL     1       1.307  -5.892   3.156  0.00  0.00    +0.071 A 
ATOM      8  C   UNL     1       1.291  -4.531   2.911  0.00  0.00    +0.065 A 
ATOM      9 CL   UNL     1       1.288  -3.410   4.237  0.00  0.00    -0.082 Cl
ATOM     10  O   UNL     1       1.334  -8.155   2.075  0.00  0.00    -0.453 OA
ATOM     11  C   UNL     1       0.919  -8.520   0.745  0.00  0.00    +0.466 C 
ATOM     12  O   UNL     1       1.311  -7.390  -0.058  0.00  0.00    -0.453 OA
ENDBRANCH   1   3
BRANCH   1  13
ATOM     13  C   UNL     1       1.230  -2.187  -0.022  0.00  0.00    +0.140 C 
BRANCH  13  18
ATOM     14  C   UNL     1      -0.017   1.379   0.010  0.00  0.00    +0.022 A 
ATOM     15  C   UNL     1       1.171   2.087   0.002  0.00  0.00    +0.023 A 
ATOM     16  C   UNL     1       2.378   1.413  -0.013  0.00  0.00    +0.060 A 
ATOM     17  C   UNL     1       2.397   0.028  -0.021  0.00  0.00    +0.065 A 
ATOM     18  C   UNL     1       1.209  -0.680  -0.013  0.00  0.00    +0.008 A 
ATOM     19  C   UNL     1       0.002  -0.004   0.002  0.00  0.00    +0.047 A 
ATOM     20 CL   UNL     1      -1.490  -0.892   0.012  0.00  0.00    -0.083 Cl
ATOM     21 CL   UNL     1       3.913  -0.819  -0.041  0.00  0.00    -0.082 Cl
ATOM     22 CL   UNL     1       3.869   2.302  -0.024  0.00  0.00    -0.082 Cl
ENDBRANCH  13  18
ENDBRANCH   1  13
TORSDOF 3
