REMARK  Name = ZINC34791694
REMARK  6 active torsions:
REMARK  status: ('A' for Active; 'I' for Inactive)
REMARK    1  A    between atoms: C_1  and  N_2
REMARK    2  A    between atoms: C_5  and  C_10
REMARK    3  A    between atoms: N_19  and  C_21
REMARK    4  A    between atoms: C_21  and  C_23
REMARK    5  A    between atoms: C_21  and  C_30
REMARK    6  A    between atoms: C_23  and  C_24
REMARK                            x       y       z     vdW  Elec       q    Type
REMARK                         _______ _______ _______ _____ _____    ______ ____
ROOT
ATOM      1  C   UNL     1       0.364   0.571  -0.502  0.00  0.00    +0.139 C 
ATOM      2  N   UNL     1       0.139  -0.864  -0.312  0.00  0.00    -0.260 N 
ATOM      3  C   UNL     1      -1.149  -1.305  -0.194  0.00  0.00    +0.042 C 
ATOM      4  C   UNL     1      -1.426  -2.613  -0.018  0.00  0.00    +0.058 C 
ATOM      5  C   UNL     1      -0.260  -3.578   0.044  0.00  0.00    +0.142 C 
ATOM      6  N   UNL     1       1.089  -3.004  -0.093  0.00  0.00    -0.288 N 
ATOM      7  C   UNL     1       1.206  -1.673  -0.269  0.00  0.00    +0.307 C 
ATOM      8  O   UNL     1       2.315  -1.190  -0.388  0.00  0.00    -0.252 OA
ATOM      9  C   UNL     1      -2.819  -2.810   0.076  0.00  0.00    +0.247 C 
ATOM     10  O   UNL     1      -3.351  -3.893   0.237  0.00  0.00    -0.270 OA
ATOM     11  N   UNL     1      -3.483  -1.646  -0.036  0.00  0.00    -0.280 N 
ATOM     12  C   UNL     1      -2.479  -0.587  -0.217  0.00  0.00    +0.160 C 
ATOM     13  H   UNL     1       1.876  -3.571  -0.062  0.00  0.00    +0.151 HD
ENDROOT
BRANCH   5  14
ATOM     14  C   UNL     1      -0.443  -4.599  -1.048  0.00  0.00    -0.022 A 
ATOM     15  C   UNL     1      -0.091  -4.290  -2.349  0.00  0.00    +0.007 A 
ATOM     16  C   UNL     1      -0.259  -5.227  -3.352  0.00  0.00    +0.020 A 
ATOM     17  C   UNL     1      -0.779  -6.473  -3.054  0.00  0.00    +0.041 A 
ATOM     18  C   UNL     1      -1.131  -6.782  -1.752  0.00  0.00    +0.020 A 
ATOM     19  C   UNL     1      -0.958  -5.847  -0.749  0.00  0.00    +0.007 A 
ATOM     20 CL   UNL     1      -0.991  -7.650  -4.313  0.00  0.00    -0.084 Cl
ENDBRANCH   5  14
BRANCH  11  21
ATOM     21  C   UNL     1      -4.936  -1.466   0.014  0.00  0.00    +0.167 C 
BRANCH  21  22
ATOM     22  C   UNL     1      -5.578  -2.256  -1.098  0.00  0.00    +0.236 C 
ATOM     23  O   UNL     1      -4.987  -3.189  -1.598  0.00  0.00    -0.274 OA
ATOM     24  N   UNL     1      -6.809  -1.925  -1.536  0.00  0.00    -0.300 N 
ATOM     25  C   UNL     1      -7.490  -0.728  -1.022  0.00  0.00    +0.108 C 
ATOM     26  C   UNL     1      -7.920   0.141  -2.208  0.00  0.00    +0.019 C 
ATOM     27  C   UNL     1      -8.763  -0.697  -3.171  0.00  0.00    +0.003 C 
ATOM     28  C   UNL     1      -7.926  -1.861  -3.705  0.00  0.00    +0.019 C 
ATOM     29  C   UNL     1      -7.493  -2.750  -2.541  0.00  0.00    +0.108 C 
ENDBRANCH  21  22
BRANCH  21  30
ATOM     30  C   UNL     1      -5.466  -1.960   1.362  0.00  0.00    +0.067 C 
BRANCH  30  31
ATOM     31  C   UNL     1      -4.942  -1.074   2.462  0.00  0.00    -0.045 A 
ATOM     32  C   UNL     1      -3.741  -1.375   3.079  0.00  0.00    +0.004 A 
ATOM     33  C   UNL     1      -3.261  -0.562   4.089  0.00  0.00    +0.000 A 
ATOM     34  C   UNL     1      -3.980   0.551   4.481  0.00  0.00    +0.000 A 
ATOM     35  C   UNL     1      -5.179   0.852   3.864  0.00  0.00    +0.000 A 
ATOM     36  C   UNL     1      -5.658   0.042   2.852  0.00  0.00    +0.004 A 
ENDBRANCH  30  31
ENDBRANCH  21  30
ENDBRANCH  11  21
TORSDOF 5
