REMARK  Name = ZINC15932097
REMARK  7 active torsions:
REMARK  status: ('A' for Active; 'I' for Inactive)
REMARK    1  A    between atoms: C_4  and  O_31
REMARK    2  A    between atoms: C_5  and  C_7
REMARK    3  A    between atoms: N_11  and  C_24
REMARK    4  A    between atoms: N_13  and  N_14
REMARK    5  A    between atoms: C_15  and  C_16
REMARK    6  A    between atoms: C_21  and  O_22
REMARK    7  A    between atoms: C_27  and  O_30
REMARK                            x       y       z     vdW  Elec       q    Type
REMARK                         _______ _______ _______ _____ _____    ______ ____
ROOT
ATOM      1  C   UNL     1      -9.549   1.438  -0.534  0.00  0.00    +0.032 C 
ATOM      2  C   UNL     1      -8.287   1.888  -0.309  0.00  0.00    +0.079 C 
ATOM      3  C   UNL     1      -7.044   1.122  -0.103  0.00  0.00    +0.263 C 
ATOM      4  O   UNL     1      -7.037  -0.095  -0.117  0.00  0.00    -0.269 OA
ATOM      5  N   UNL     1      -5.936   1.817   0.093  0.00  0.00    -0.213 N 
ATOM      6  C   UNL     1      -5.966   3.196   0.110  0.00  0.00    +0.194 C 
ATOM      7  N   UNL     1      -4.967   4.035   0.294  0.00  0.00    -0.126 NA
ATOM      8  S   UNL     1      -7.688   3.567  -0.185  0.00  0.00    -0.047 S 
ENDROOT
BRANCH   1  13
ATOM      9  C   UNL     1     -11.652   4.474   0.105  0.00  0.00    +0.001 A 
ATOM     10  C   UNL     1     -12.790   4.173  -0.625  0.00  0.00    +0.004 A 
ATOM     11  C   UNL     1     -12.879   2.986  -1.326  0.00  0.00    +0.046 A 
ATOM     12  C   UNL     1     -11.825   2.087  -1.308  0.00  0.00    +0.124 A 
ATOM     13  C   UNL     1     -10.671   2.384  -0.566  0.00  0.00    +0.018 A 
ATOM     14  C   UNL     1     -10.595   3.591   0.140  0.00  0.00    +0.011 A 
BRANCH  12  15
ATOM     15  O   UNL     1     -11.910   0.923  -2.001  0.00  0.00    -0.506 OA
ATOM     16  H   UNL     1     -12.287   0.191  -1.496  0.00  0.00    +0.292 HD
ENDBRANCH  12  15
ENDBRANCH   1  13
BRANCH   5  17
ATOM     17  C   UNL     1      -4.720   1.146   0.288  0.00  0.00    +0.044 A 
ATOM     18  C   UNL     1      -3.745   1.174  -0.700  0.00  0.00    +0.027 A 
ATOM     19  C   UNL     1      -2.546   0.517  -0.504  0.00  0.00    +0.047 A 
ATOM     20  C   UNL     1      -2.320  -0.179   0.674  0.00  0.00    +0.117 A 
ATOM     21  C   UNL     1      -3.297  -0.211   1.660  0.00  0.00    +0.047 A 
ATOM     22  C   UNL     1      -4.494   0.450   1.468  0.00  0.00    +0.027 A 
BRANCH  20  23
ATOM     23  O   UNL     1      -1.142  -0.830   0.864  0.00  0.00    -0.507 OA
ATOM     24  H   UNL     1      -1.144  -1.746   0.555  0.00  0.00    +0.292 HD
ENDBRANCH  20  23
ENDBRANCH   5  17
BRANCH   7  25
ATOM     25  N   UNL     1      -3.796   3.588   0.599  0.00  0.00    -0.155 NA
ATOM     26  C   UNL     1      -2.737   4.071   0.006  0.00  0.00    +0.146 C 
BRANCH  26  27
ATOM     27  C   UNL     1      -1.396   3.660   0.447  0.00  0.00    +0.036 A 
ATOM     28  C   UNL     1      -0.260   4.142  -0.212  0.00  0.00    +0.013 A 
ATOM     29  C   UNL     1       0.994   3.752   0.207  0.00  0.00    +0.001 A 
ATOM     30  C   UNL     1       1.135   2.885   1.278  0.00  0.00    +0.004 A 
ATOM     31  C   UNL     1       0.020   2.401   1.938  0.00  0.00    +0.046 A 
ATOM     32  C   UNL     1      -1.248   2.777   1.528  0.00  0.00    +0.125 A 
BRANCH  32  33
ATOM     33  O   UNL     1      -2.343   2.297   2.172  0.00  0.00    -0.506 OA
ATOM     34  H   UNL     1      -2.679   2.882   2.865  0.00  0.00    +0.292 HD
ENDBRANCH  32  33
ENDBRANCH  26  27
ENDBRANCH   7  25
TORSDOF 7
