REMARK  Name = ZINC09543223
REMARK  6 active torsions:
REMARK  status: ('A' for Active; 'I' for Inactive)
REMARK    1  A    between atoms: C_1  and  C_2
REMARK    2  A    between atoms: C_5  and  C_8
REMARK    3  A    between atoms: C_10  and  C_23
REMARK    4  A    between atoms: C_12  and  C_15
REMARK    5  A    between atoms: C_20  and  O_21
REMARK    6  A    between atoms: C_28  and  C_29
REMARK                            x       y       z     vdW  Elec       q    Type
REMARK                         _______ _______ _______ _____ _____    ______ ____
ROOT
ATOM      1  C   UNL     1       0.611   1.669   0.256  0.00  0.00    +0.040 C 
ATOM      2  N   UNL     1       0.502   0.398   0.154  0.00  0.00    -0.299 NA
ATOM      3  C   UNL     1       1.629  -0.526   0.191  0.00  0.00    +0.081 C 
ATOM      4  C   UNL     1       3.070   1.405   0.092  0.00  0.00    -0.028 C 
ATOM      5  C   UNL     1       1.929   2.367   0.439  0.00  0.00    +0.044 C 
ATOM      6  N   UNL     1       2.815   0.121   0.773  0.00  0.00    +0.401 N 
ATOM      7  H   UNL     1       3.629  -0.494   0.657  0.00  0.00    -0.081 HD
ATOM      8  H   UNL     1       2.654   0.291   1.773  0.00  0.00    -0.081 HD
ENDROOT
BRANCH   1  13
ATOM      9  C   UNL     1      -4.166   4.861  -0.025  0.00  0.00    +0.044 C 
ATOM     10  C   UNL     1      -2.915   4.024   0.049  0.00  0.00    -0.050 A 
ATOM     11  C   UNL     1      -2.982   2.662  -0.183  0.00  0.00    +0.004 A 
ATOM     12  C   UNL     1      -1.841   1.891  -0.117  0.00  0.00    +0.010 A 
ATOM     13  C   UNL     1      -0.615   2.488   0.184  0.00  0.00    -0.004 A 
ATOM     14  C   UNL     1      -0.555   3.862   0.424  0.00  0.00    +0.010 A 
ATOM     15  C   UNL     1      -1.704   4.622   0.349  0.00  0.00    +0.004 A 
ENDBRANCH   1  13
BRANCH   4  16
ATOM     16  C   UNL     1       4.381   1.977   0.568  0.00  0.00    -0.018 A 
ATOM     17  C   UNL     1       4.928   1.550   1.763  0.00  0.00    +0.020 A 
ATOM     18  C   UNL     1       6.131   2.074   2.200  0.00  0.00    +0.018 A 
ATOM     19  C   UNL     1       6.789   3.027   1.443  0.00  0.00    +0.019 A 
ATOM     20  C   UNL     1       6.245   3.457   0.248  0.00  0.00    +0.047 A 
ATOM     21  C   UNL     1       5.042   2.928  -0.195  0.00  0.00    +0.119 A 
ATOM     22 BR   UNL     1       6.878   1.487   3.835  0.00  0.00    -0.050 Br
BRANCH  21  23
ATOM     23  O   UNL     1       4.508   3.345  -1.374  0.00  0.00    -0.507 OA
ATOM     24  H   UNL     1       3.919   4.108  -1.291  0.00  0.00    +0.292 HD
ENDBRANCH  21  23
ENDBRANCH   4  16
BRANCH   3  25
ATOM     25  C   UNL     1       1.262  -1.724   1.029  0.00  0.00    -0.038 A 
ATOM     26  C   UNL     1       0.286  -1.613   2.003  0.00  0.00    +0.004 A 
ATOM     27  C   UNL     1      -0.051  -2.712   2.771  0.00  0.00    +0.000 A 
ATOM     28  C   UNL     1       0.587  -3.921   2.565  0.00  0.00    +0.000 A 
ATOM     29  C   UNL     1       1.562  -4.031   1.592  0.00  0.00    +0.003 A 
ATOM     30  C   UNL     1       1.896  -2.934   0.820  0.00  0.00    -0.047 A 
ATOM     31  C   UNL     1       2.954  -3.055  -0.246  0.00  0.00    +0.044 C 
ENDBRANCH   3  25
TORSDOF 4
