REMARK  Name = ZINC14271294
REMARK  8 active torsions:
REMARK  status: ('A' for Active; 'I' for Inactive)
REMARK    1  A    between atoms: C_1  and  C_2
REMARK    2  A    between atoms: C_2  and  C_3
REMARK    3  A    between atoms: C_2  and  C_4
REMARK    4  A    between atoms: N_6  and  C_7
REMARK    5  A    between atoms: C_11  and  N_13
REMARK    6  A    between atoms: N_13  and  C_14
REMARK    7  A    between atoms: C_14  and  N_16
REMARK    8  A    between atoms: C_17  and  C_19
REMARK                            x       y       z     vdW  Elec       q    Type
REMARK                         _______ _______ _______ _____ _____    ______ ____
ROOT
ATOM      1  C   UNL     1      -1.229  -1.960   0.835  0.00  0.00    +0.141 C 
ATOM      2  S   UNL     1      -0.128  -2.113   2.137  0.00  0.00    -0.018 S 
ENDROOT
BRANCH   1   3
ATOM      3  N   UNL     1      -2.291  -2.785   0.750  0.00  0.00    -0.263 N 
ATOM      4  C   UNL     1      -2.486  -3.731   1.690  0.00  0.00    +0.258 C 
ATOM      5  O   UNL     1      -1.704  -3.840   2.616  0.00  0.00    -0.269 OA
ATOM      6  H   UNL     1      -2.915  -2.699   0.013  0.00  0.00    +0.157 HD
BRANCH   4   7
ATOM      7  C   UNL     1      -3.642  -4.630   1.598  0.00  0.00    +0.094 A 
ATOM      8  C   UNL     1      -4.001  -5.639   2.438  0.00  0.00    +0.068 A 
ATOM      9  C   UNL     1      -5.161  -6.391   2.174  0.00  0.00    +0.008 A 
ATOM     10  C   UNL     1      -5.698  -7.469   2.925  0.00  0.00    +0.012 A 
ATOM     11  C   UNL     1      -6.835  -8.095   2.526  0.00  0.00    +0.021 A 
ATOM     12  C   UNL     1      -7.513  -7.711   1.374  0.00  0.00    +0.042 A 
ATOM     13  C   UNL     1      -7.024  -6.667   0.613  0.00  0.00    +0.035 A 
ATOM     14  C   UNL     1      -5.871  -6.022   1.008  0.00  0.00    +0.023 A 
ATOM     15  S   UNL     1      -4.920  -4.674   0.353  0.00  0.00    -0.082 S 
ATOM     16 CL   UNL     1      -8.964  -8.537   0.897  0.00  0.00    -0.084 Cl
ATOM     17 CL   UNL     1      -3.033  -5.995   3.835  0.00  0.00    -0.082 Cl
ENDBRANCH   4   7
ENDBRANCH   1   3
BRANCH   1  18
ATOM     18  N   UNL     1      -1.034  -1.014  -0.105  0.00  0.00    -0.297 N 
ATOM     19  H   UNL     1      -1.699  -0.873  -0.797  0.00  0.00    +0.154 HD
BRANCH  18  24
ATOM     20  C   UNL     1       2.502  -0.048   0.223  0.00  0.00    +0.035 A 
ATOM     21  C   UNL     1       2.425   1.314  -0.043  0.00  0.00    +0.023 A 
ATOM     22  C   UNL     1       1.205   1.896  -0.328  0.00  0.00    +0.004 A 
ATOM     23  C   UNL     1       0.058   1.126  -0.348  0.00  0.00    +0.023 A 
ATOM     24  C   UNL     1       0.128  -0.236  -0.083  0.00  0.00    +0.034 A 
ATOM     25  C   UNL     1       1.353  -0.823   0.203  0.00  0.00    +0.046 A 
BRANCH  20  28
ATOM     26  C   UNL     1       3.998  -1.894   0.103  0.00  0.00    +0.220 C 
ATOM     27  O   UNL     1       3.133  -2.544  -0.445  0.00  0.00    -0.275 OA
ATOM     28  N   UNL     1       3.739  -0.636   0.511  0.00  0.00    -0.285 N 
ATOM     29  H   UNL     1       4.409  -0.139   1.005  0.00  0.00    +0.155 HD
BRANCH  26  31
ATOM     30  C   UNL     1       5.669  -2.520   1.825  0.00  0.00    +0.017 C 
ATOM     31  C   UNL     1       5.363  -2.492   0.326  0.00  0.00    +0.069 C 
ATOM     32  C   UNL     1       5.391  -3.919  -0.227  0.00  0.00    +0.017 C 
ENDBRANCH  26  31
ENDBRANCH  20  28
ENDBRANCH  18  24
ENDBRANCH   1  18
TORSDOF 6
