REMARK  Name = ZINC27061343
REMARK  7 active torsions:
REMARK  status: ('A' for Active; 'I' for Inactive)
REMARK    1  A    between atoms: C_1  and  O_2
REMARK    2  A    between atoms: O_2  and  C_3
REMARK    3  A    between atoms: C_6  and  C_9
REMARK    4  A    between atoms: C_9  and  C_11
REMARK    5  A    between atoms: C_9  and  N_25
REMARK    6  A    between atoms: C_11  and  N_12
REMARK    7  A    between atoms: N_12  and  C_13
REMARK                            x       y       z     vdW  Elec       q    Type
REMARK                         _______ _______ _______ _____ _____    ______ ____
ROOT
ATOM      1  C   UNL     1      -4.617   1.158   0.190  0.00  0.00    +0.090 C 
ENDROOT
BRANCH   1   2
ATOM      2  N   UNL     1      -3.672   2.271   0.318  0.00  0.00    -0.350 N 
ATOM      3  H   UNL     1      -4.045   3.304   0.371  0.00  0.00    +0.145 HD
BRANCH   2   4
ATOM      4  C   UNL     1      -2.401   2.037   0.370  0.00  0.00    +0.080 C 
ATOM      5  C   UNL     1      -1.451   3.156   0.500  0.00  0.00    +0.051 C 
ATOM      6  C   UNL     1      -0.084   2.913   0.556  0.00  0.00    +0.024 C 
ATOM      7  C   UNL     1       0.780   4.016   0.673  0.00  0.00    -0.003 A 
ATOM      8  C   UNL     1       2.174   3.844   0.729  0.00  0.00    +0.010 A 
ATOM      9  C   UNL     1       2.982   4.934   0.843  0.00  0.00    +0.001 A 
ATOM     10  C   UNL     1       2.446   6.218   0.904  0.00  0.00    +0.002 A 
ATOM     11  C   UNL     1       1.100   6.420   0.854  0.00  0.00    +0.024 A 
ATOM     12  C   UNL     1       0.232   5.322   0.736  0.00  0.00    +0.041 A 
ATOM     13  N   UNL     1      -1.093   5.500   0.683  0.00  0.00    -0.281 N 
ATOM     14  C   UNL     1      -1.922   4.487   0.574  0.00  0.00    +0.249 C 
ATOM     15  O   UNL     1      -3.255   4.722   0.525  0.00  0.00    -0.270 OA
ATOM     16  H   UNL     1      -1.514   6.515   0.732  0.00  0.00    +0.155 HD
ENDBRANCH   2   4
ENDBRANCH   1   2
BRANCH   1  17
ATOM     17  C   UNL     1      -5.567   1.154   1.389  0.00  0.00    -0.020 C 
BRANCH  17  21
ATOM     18  C   UNL     1      -8.341  -2.074   0.997  0.00  0.00    +0.120 A 
ATOM     19  C   UNL     1      -8.761  -0.767   0.793  0.00  0.00    +0.046 A 
ATOM     20  C   UNL     1      -7.862   0.274   0.921  0.00  0.00    +0.005 A 
ATOM     21  C   UNL     1      -6.545   0.016   1.251  0.00  0.00    -0.059 A 
ATOM     22  C   UNL     1      -6.122  -1.286   1.449  0.00  0.00    +0.005 A 
ATOM     23  C   UNL     1      -7.018  -2.330   1.328  0.00  0.00    +0.046 A 
BRANCH  18  25
ATOM     24  C   UNL     1      -8.719  -4.419   1.096  0.00  0.00    +0.277 C 
ATOM     25  O   UNL     1      -9.222  -3.100   0.872  0.00  0.00    -0.495 OA
ENDBRANCH  18  25
ENDBRANCH  17  21
BRANCH  17  26
ATOM     26  N   UNL     1      -4.793   0.987   2.626  0.00  0.00    +0.385 N 
ATOM     27  C   UNL     1      -4.038   2.224   2.953  0.00  0.00    -0.078 C 
ATOM     28  C   UNL     1      -3.743   2.069   4.466  0.00  0.00    -0.020 C 
ATOM     29  C   UNL     1      -5.033   1.409   5.005  0.00  0.00    -0.020 C 
ATOM     30  C   UNL     1      -5.685   0.741   3.780  0.00  0.00    -0.078 C 
ATOM     31  H   UNL     1      -4.122   0.134   2.446  0.00  0.00    -0.081 HD
ENDBRANCH  17  26
ENDBRANCH   1  17
TORSDOF 6
