REMARK  Name = ZINC65387940
REMARK  5 active torsions:
REMARK  status: ('A' for Active; 'I' for Inactive)
REMARK    1  A    between atoms: C_1  and  C_2
REMARK    2  A    between atoms: C_6  and  C_10
REMARK    3  A    between atoms: C_13  and  C_23
REMARK    4  A    between atoms: C_23  and  C_24
REMARK    5  A    between atoms: C_24  and  C_25
REMARK                            x       y       z     vdW  Elec       q    Type
REMARK                         _______ _______ _______ _____ _____    ______ ____
ROOT
ATOM      1  C   UNL     1       1.278  -3.656  -0.030  0.00  0.00    +0.176 C 
ATOM      2  N   UNL     1       1.380  -4.444   1.223  0.00  0.00    -0.280 NA
ATOM      3  C   UNL     1       0.814  -5.762   0.824  0.00  0.00    +0.141 C 
ATOM      4  N   UNL     1       1.275  -5.897  -0.581  0.00  0.00    -0.220 NA
ATOM      5  N   UNL     1       1.190  -4.636  -1.125  0.00  0.00    -0.231 N 
ATOM      6  C   UNL     1       1.045  -4.338  -2.475  0.00  0.00    +0.136 A 
ATOM      7  C   UNL     1       0.854  -5.367  -3.391  0.00  0.00    +0.045 A 
ATOM      8  C   UNL     1       0.711  -5.056  -4.731  0.00  0.00    +0.005 A 
ATOM      9  C   UNL     1       0.764  -3.722  -5.112  0.00  0.00    +0.020 A 
ATOM     10  C   UNL     1       0.956  -2.752  -4.149  0.00  0.00    +0.113 A 
ATOM     11  N   UNL     1       1.084  -3.077  -2.876  0.00  0.00    -0.239 NA
ATOM     12  H   UNL     1       2.342  -4.536   1.514  0.00  0.00    +0.125 HD
ATOM     13  H   UNL     1       0.698  -6.550  -1.090  0.00  0.00    +0.146 HD
ENDROOT
BRANCH   1  19
ATOM     14  C   UNL     1      -2.922  -2.711   3.098  0.00  0.00    +0.063 C 
ATOM     15  C   UNL     1      -1.883  -2.734   2.007  0.00  0.00    +0.031 C 
ATOM     16  N   UNL     1      -0.865  -1.925   2.116  0.00  0.00    -0.185 NA
ATOM     17  C   UNL     1       0.112  -1.868   1.201  0.00  0.00    +0.246 C 
ATOM     18  O   UNL     1       1.046  -1.104   1.334  0.00  0.00    -0.273 OA
ATOM     19  C   UNL     1       0.021  -2.784  -0.003  0.00  0.00    +0.136 C 
ATOM     20  C   UNL     1      -1.186  -3.700  -0.070  0.00  0.00    -0.010 C 
ATOM     21  C   UNL     1      -2.069  -3.631   0.938  0.00  0.00    +0.017 C 
ENDBRANCH   1  19
BRANCH   3  22
ATOM     22  C   UNL     1       1.381  -6.883   1.697  0.00  0.00    +0.041 C 
BRANCH  22  23
ATOM     23  C   UNL     1       0.781  -8.221   1.262  0.00  0.00    +0.038 C 
BRANCH  23  24
ATOM     24  C   UNL     1       1.339  -9.326   2.121  0.00  0.00    -0.047 A 
ATOM     25  C   UNL     1       2.497  -9.979   1.741  0.00  0.00    +0.003 A 
ATOM     26  C   UNL     1       3.010 -10.992   2.530  0.00  0.00    +0.000 A 
ATOM     27  C   UNL     1       2.365 -11.352   3.698  0.00  0.00    +0.000 A 
ATOM     28  C   UNL     1       1.208 -10.698   4.079  0.00  0.00    +0.000 A 
ATOM     29  C   UNL     1       0.698  -9.682   3.293  0.00  0.00    +0.003 A 
ENDBRANCH  23  24
ENDBRANCH  22  23
ENDBRANCH   3  22
TORSDOF 4
