REMARK  Name = ZINC35397210
REMARK  7 active torsions:
REMARK  status: ('A' for Active; 'I' for Inactive)
REMARK    1  A    between atoms: C_1  and  C_2
REMARK    2  A    between atoms: C_2  and  N_3
REMARK    3  A    between atoms: C_10  and  C_25
REMARK    4  A    between atoms: C_11  and  S_13
REMARK    5  A    between atoms: S_13  and  C_14
REMARK    6  A    between atoms: C_14  and  C_15
REMARK    7  A    between atoms: N_17  and  C_18
REMARK                            x       y       z     vdW  Elec       q    Type
REMARK                         _______ _______ _______ _____ _____    ______ ____
ROOT
ATOM      1  N   UNL     1       0.644  -0.353  -1.174  0.00  0.00    +0.380 N 
ATOM      2  C   UNL     1      -0.122   0.043  -2.362  0.00  0.00    -0.075 C 
ATOM      3  C   UNL     1       0.625  -0.394  -3.624  0.00  0.00    +0.035 C 
ATOM      4  C   UNL     1       0.806  -1.912  -3.603  0.00  0.00    +0.150 C 
ATOM      5  C   UNL     1       1.530  -2.328  -2.322  0.00  0.00    +0.035 C 
ATOM      6  C   UNL     1       0.747  -1.815  -1.111  0.00  0.00    -0.075 C 
ATOM      7  N   UNL     1      -0.498  -2.575  -3.682  0.00  0.00    -0.251 NA
ATOM      8  C   UNL     1      -0.496  -3.301  -4.761  0.00  0.00    +0.100 C 
ATOM      9  C   UNL     1       0.807  -3.156  -5.452  0.00  0.00    +0.120 C 
ATOM     10  N   UNL     1       1.568  -2.345  -4.777  0.00  0.00    -0.246 NA
ATOM     11  H   UNL     1       1.570   0.046  -1.226  0.00  0.00    -0.082 HD
ENDROOT
BRANCH   8  12
ATOM     12  C   UNL     1      -1.622  -4.142  -5.227  0.00  0.00    +0.003 A 
ATOM     13  C   UNL     1      -1.379  -5.247  -6.044  0.00  0.00    +0.011 A 
ATOM     14  C   UNL     1      -2.432  -6.027  -6.475  0.00  0.00    +0.016 A 
ATOM     15  C   UNL     1      -3.727  -5.716  -6.098  0.00  0.00    +0.018 A 
ATOM     16  C   UNL     1      -3.974  -4.620  -5.288  0.00  0.00    +0.016 A 
ATOM     17  C   UNL     1      -2.929  -3.836  -4.847  0.00  0.00    +0.011 A 
ATOM     18 BR   UNL     1      -5.165  -6.790  -6.694  0.00  0.00    -0.050 Br
ENDBRANCH   8  12
BRANCH   1  20
ATOM     19  C   UNL     1      -0.031   1.672   0.027  0.00  0.00    -0.017 C 
ATOM     20  C   UNL     1      -0.034   0.142   0.032  0.00  0.00    -0.082 C 
ENDBRANCH   1  20
BRANCH   9  21
ATOM     21  S   UNL     1       1.256  -3.958  -6.955  0.00  0.00    -0.095 S 
BRANCH  21  22
ATOM     22  C   UNL     1       2.946  -3.381  -7.273  0.00  0.00    +0.172 C 
BRANCH  22  23
ATOM     23  C   UNL     1       3.457  -4.001  -8.548  0.00  0.00    +0.227 C 
ATOM     24  O   UNL     1       2.751  -4.758  -9.180  0.00  0.00    -0.275 OA
ATOM     25  N   UNL     1       4.699  -3.715  -8.986  0.00  0.00    -0.284 N 
ATOM     26  H   UNL     1       5.293  -3.176  -8.440  0.00  0.00    +0.155 HD
BRANCH  25  27
ATOM     27  C   UNL     1       5.132  -4.194 -10.227  0.00  0.00    +0.052 A 
ATOM     28  C   UNL     1       4.232  -4.317 -11.277  0.00  0.00    +0.025 A 
ATOM     29  C   UNL     1       4.662  -4.791 -12.502  0.00  0.00    +0.002 A 
ATOM     30  C   UNL     1       5.987  -5.143 -12.683  0.00  0.00    +0.002 A 
ATOM     31  C   UNL     1       6.886  -5.022 -11.639  0.00  0.00    +0.022 A 
ATOM     32  C   UNL     1       6.464  -4.544 -10.413  0.00  0.00    +0.062 A 
ATOM     33 CL   UNL     1       7.595  -4.385  -9.106  0.00  0.00    -0.082 Cl
ENDBRANCH  25  27
ENDBRANCH  22  23
ENDBRANCH  21  22
ENDBRANCH   9  21
TORSDOF 6
