REMARK  Name = ZINC01427527
REMARK  9 active torsions:
REMARK  status: ('A' for Active; 'I' for Inactive)
REMARK    1  A    between atoms: C_1  and  C_2
REMARK    2  A    between atoms: C_5  and  N_9
REMARK    3  A    between atoms: N_9  and  C_10
REMARK    4  A    between atoms: C_10  and  C_11
REMARK    5  A    between atoms: N_13  and  N_14
REMARK    6  A    between atoms: C_15  and  C_16
REMARK    7  A    between atoms: C_19  and  O_24
REMARK    8  A    between atoms: C_20  and  O_22
REMARK    9  A    between atoms: O_22  and  C_23
REMARK                            x       y       z     vdW  Elec       q    Type
REMARK                         _______ _______ _______ _____ _____    ______ ____
ROOT
ATOM      1  C   UNL     1       5.600  -1.236  -1.319  0.00  0.00    +0.249 C 
ATOM      2  O   UNL     1       5.857  -1.978  -0.394  0.00  0.00    -0.272 OA
ATOM      3  N   UNL     1       6.432  -1.166  -2.378  0.00  0.00    -0.206 N 
ATOM      4  H   UNL     1       6.227  -0.573  -3.117  0.00  0.00    +0.177 HD
ENDROOT
BRANCH   3   5
ATOM      5  N   UNL     1       7.593  -1.950  -2.409  0.00  0.00    -0.188 NA
ATOM      6  C   UNL     1       8.394  -1.883  -3.428  0.00  0.00    +0.138 C 
BRANCH   6   7
ATOM      7  C   UNL     1       9.615  -2.708  -3.462  0.00  0.00    -0.002 A 
ATOM      8  C   UNL     1       9.915  -3.558  -2.395  0.00  0.00    +0.013 A 
ATOM      9  C   UNL     1      11.055  -4.333  -2.431  0.00  0.00    +0.050 A 
ATOM     10  C   UNL     1      11.912  -4.263  -3.519  0.00  0.00    +0.158 A 
ATOM     11  C   UNL     1      11.623  -3.412  -4.584  0.00  0.00    +0.162 A 
ATOM     12  C   UNL     1      10.479  -2.636  -4.558  0.00  0.00    +0.058 A 
BRANCH  11  13
ATOM     13  O   UNL     1      12.465  -3.345  -5.649  0.00  0.00    -0.491 OA
ATOM     14  C   UNL     1      12.106  -2.452  -6.706  0.00  0.00    +0.277 C 
ENDBRANCH  11  13
BRANCH  10  15
ATOM     15  O   UNL     1      13.037  -5.025  -3.547  0.00  0.00    -0.503 OA
ATOM     16  H   UNL     1      13.812  -4.596  -3.159  0.00  0.00    +0.292 HD
ENDBRANCH  10  15
ENDBRANCH   6   7
ENDBRANCH   3   5
BRANCH   1  17
ATOM     17  C   UNL     1       4.352  -0.393  -1.285  0.00  0.00    +0.199 C 
BRANCH  17  18
ATOM     18  N   UNL     1       3.622  -0.650  -0.037  0.00  0.00    -0.334 N 
ATOM     19  H   UNL     1       3.338  -1.616   0.024  0.00  0.00    +0.147 HD
BRANCH  18  24
ATOM     20  C   UNL     1      -0.841   2.818   0.452  0.00  0.00    +0.044 C 
ATOM     21  C   UNL     1       0.343   1.895   0.326  0.00  0.00    -0.048 A 
ATOM     22  C   UNL     1       1.567   2.267   0.852  0.00  0.00    +0.020 A 
ATOM     23  C   UNL     1       2.657   1.425   0.734  0.00  0.00    +0.040 A 
ATOM     24  C   UNL     1       2.522   0.204   0.085  0.00  0.00    +0.056 A 
ATOM     25  C   UNL     1       1.291  -0.167  -0.442  0.00  0.00    +0.040 A 
ATOM     26  C   UNL     1       0.205   0.680  -0.320  0.00  0.00    +0.020 A 
ATOM     27 BR   UNL     1       1.101  -1.827  -1.327  0.00  0.00    -0.048 Br
ATOM     28 BR   UNL     1       4.329   1.935   1.454  0.00  0.00    -0.048 Br
ENDBRANCH  18  24
ENDBRANCH  17  18
ENDBRANCH   1  17
TORSDOF 7
