REMARK  Name = ZINC66280137
REMARK  6 active torsions:
REMARK  status: ('A' for Active; 'I' for Inactive)
REMARK    1  A    between atoms: C_1  and  C_2
REMARK    2  A    between atoms: C_2  and  C_4
REMARK    3  A    between atoms: C_2  and  N_19
REMARK    4  A    between atoms: C_4  and  C_5
REMARK    5  A    between atoms: N_7  and  C_8
REMARK    6  A    between atoms: C_20  and  C_22
REMARK                            x       y       z     vdW  Elec       q    Type
REMARK                         _______ _______ _______ _____ _____    ______ ____
ROOT
ATOM      1  C   UNL     1      -1.413  -2.036   0.135  0.00  0.00    +0.219 C 
ATOM      2  O   UNL     1      -0.355  -2.626   0.198  0.00  0.00    -0.275 OA
ATOM      3  N   UNL     1      -2.572  -2.725   0.157  0.00  0.00    -0.284 N 
ATOM      4  H   UNL     1      -3.418  -2.251   0.172  0.00  0.00    +0.155 HD
ENDROOT
BRANCH   3   5
ATOM      5  C   UNL     1      -2.553  -4.126   0.159  0.00  0.00    +0.056 A 
ATOM      6  C   UNL     1      -1.544  -4.807   0.825  0.00  0.00    +0.074 A 
ATOM      7  C   UNL     1      -1.526  -6.193   0.827  0.00  0.00    +0.164 A 
ATOM      8  C   UNL     1      -2.522  -6.900   0.163  0.00  0.00    +0.164 A 
ATOM      9  C   UNL     1      -3.528  -6.218  -0.503  0.00  0.00    +0.071 A 
ATOM     10  C   UNL     1      -3.549  -4.835  -0.501  0.00  0.00    +0.066 A 
ATOM     11 CL   UNL     1      -4.815  -3.985  -1.330  0.00  0.00    -0.082 Cl
ATOM     12  O   UNL     1      -2.525  -8.262   0.160  0.00  0.00    -0.485 OA
ATOM     13  C   UNL     1      -1.299  -8.909   0.520  0.00  0.00    +0.270 C 
ATOM     14  C   UNL     1      -0.748  -8.228   1.780  0.00  0.00    +0.270 C 
ATOM     15  O   UNL     1      -0.526  -6.846   1.482  0.00  0.00    -0.485 OA
ENDBRANCH   3   5
BRANCH   1  16
ATOM     16  C   UNL     1      -1.433  -0.533   0.031  0.00  0.00    +0.118 C 
BRANCH  16  18
ATOM     17  C   UNL     1      -0.018   1.526   0.045  0.00  0.00    +0.028 C 
ATOM     18  C   UNL     1       0.003  -0.003   0.025  0.00  0.00    +0.079 C 
BRANCH  18  19
ATOM     19  N   UNL     1       0.689  -0.467  -1.183  0.00  0.00    -0.312 N 
ATOM     20  C   UNL     1       2.032  -0.577  -1.195  0.00  0.00    +0.216 C 
ATOM     21  O   UNL     1       2.673  -0.293  -0.205  0.00  0.00    -0.276 OA
ATOM     22  H   UNL     1       0.177  -0.694  -1.975  0.00  0.00    +0.149 HD
BRANCH  20  23
ATOM     23  C   UNL     1       2.739  -1.054  -2.438  0.00  0.00    +0.075 C 
ATOM     24  C   UNL     1       2.249  -2.458  -2.796  0.00  0.00    +0.013 C 
ATOM     25  C   UNL     1       2.966  -2.942  -4.058  0.00  0.00    +0.001 C 
ATOM     26  C   UNL     1       4.475  -2.977  -3.806  0.00  0.00    +0.000 C 
ATOM     27  C   UNL     1       4.964  -1.572  -3.448  0.00  0.00    +0.001 C 
ATOM     28  C   UNL     1       4.247  -1.088  -2.186  0.00  0.00    +0.013 C 
ENDBRANCH  20  23
ENDBRANCH  18  19
ENDBRANCH  16  18
ENDBRANCH   1  16
TORSDOF 5
