REMARK  Name = ZINC39774299
REMARK  8 active torsions:
REMARK  status: ('A' for Active; 'I' for Inactive)
REMARK    1  A    between atoms: C_1  and  C_2
REMARK    2  A    between atoms: C_5  and  C_12
REMARK    3  A    between atoms: C_5  and  O_25
REMARK    4  A    between atoms: C_6  and  C_11
REMARK    5  A    between atoms: N_9  and  C_10
REMARK    6  A    between atoms: C_13  and  C_14
REMARK    7  A    between atoms: C_14  and  O_15
REMARK    8  A    between atoms: O_15  and  C_16
REMARK                            x       y       z     vdW  Elec       q    Type
REMARK                         _______ _______ _______ _____ _____    ______ ____
ROOT
ATOM      1  C   UNL     1       1.488  -2.509  -2.432  0.00  0.00    -0.064 C 
ATOM      2  C   UNL     1       2.088  -2.892  -3.365  0.00  0.00    -0.059 C 
ENDROOT
BRANCH   1   6
ATOM      3  C   UNL     1      -0.019   1.526   0.010  0.00  0.00    -0.013 C 
ATOM      4  C   UNL     1       0.002  -0.004   0.002  0.00  0.00    -0.068 C 
ATOM      5  C   UNL     1       0.717  -0.497  -1.258  0.00  0.00    +0.033 C 
ATOM      6  C   UNL     1       0.735  -2.028  -1.262  0.00  0.00    +0.126 C 
ATOM      7  C   UNL     1       1.410  -2.524   0.020  0.00  0.00    +0.013 C 
ATOM      8  C   UNL     1       0.669  -1.956   1.232  0.00  0.00    -0.072 C 
ATOM      9  N   UNL     1       0.711  -0.490   1.192  0.00  0.00    +0.380 N 
ATOM     10  C   UNL     1       0.067   0.050   2.397  0.00  0.00    -0.096 C 
ATOM     11  C   UNL     1       1.365  -4.053   0.062  0.00  0.00    +0.009 C 
ATOM     12  H   UNL     1       1.671  -0.182   1.159  0.00  0.00    -0.082 HD
BRANCH   6  13
ATOM     13  O   UNL     1      -0.605  -2.522  -1.318  0.00  0.00    -0.376 OA
ATOM     14  H   UNL     1      -1.095  -2.241  -2.103  0.00  0.00    +0.211 HD
ENDBRANCH   6  13
ENDBRANCH   1   6
BRANCH   2  15
ATOM     15  C   UNL     1       2.841  -3.372  -4.536  0.00  0.00    +0.317 C 
BRANCH  15  16
ATOM     16  O   UNL     1       2.857  -4.801  -4.538  0.00  0.00    -0.477 OA
BRANCH  16  17
ATOM     17  C   UNL     1       3.516  -5.409  -5.560  0.00  0.00    +0.150 A 
ATOM     18  C   UNL     1       2.842  -5.725  -6.731  0.00  0.00    +0.062 A 
ATOM     19  C   UNL     1       3.515  -6.343  -7.769  0.00  0.00    +0.034 A 
ATOM     20  C   UNL     1       4.858  -6.647  -7.640  0.00  0.00    +0.020 A 
ATOM     21  C   UNL     1       5.532  -6.333  -6.473  0.00  0.00    +0.034 A 
ATOM     22  C   UNL     1       4.865  -5.710  -5.435  0.00  0.00    +0.062 A 
ATOM     23 BR   UNL     1       5.789  -5.274  -3.844  0.00  0.00    -0.046 Br
ATOM     24 BR   UNL     1       5.775  -7.494  -9.061  0.00  0.00    -0.050 Br
ATOM     25 BR   UNL     1       1.006  -5.310  -6.908  0.00  0.00    -0.046 Br
ENDBRANCH  16  17
ENDBRANCH  15  16
ENDBRANCH   2  15
TORSDOF 5
