REMARK  Name = ZINC09183452
REMARK  8 active torsions:
REMARK  status: ('A' for Active; 'I' for Inactive)
REMARK    1  A    between atoms: C_1  and  C_2
REMARK    2  A    between atoms: C_2  and  C_3
REMARK    3  A    between atoms: C_3  and  C_4
REMARK    4  A    between atoms: C_8  and  N_22
REMARK    5  A    between atoms: C_9  and  C_13
REMARK    6  A    between atoms: C_13  and  C_15
REMARK    7  A    between atoms: C_24  and  C_27
REMARK    8  A    between atoms: C_24  and  C_28
REMARK                            x       y       z     vdW  Elec       q    Type
REMARK                         _______ _______ _______ _____ _____    ______ ____
ROOT
ATOM      1  C   UNL     1      -0.025   1.507   0.113  0.00  0.00    +0.051 A 
ATOM      2  C   UNL     1      -1.246   2.169   0.122  0.00  0.00    +0.004 A 
ATOM      3  C   UNL     1      -1.262   3.546   0.118  0.00  0.00    -0.023 A 
ATOM      4  C   UNL     1      -0.038   4.221   0.090  0.00  0.00    +0.065 A 
ATOM      5  C   UNL     1       0.350   5.635   0.070  0.00  0.00    +0.084 A 
ATOM      6  C   UNL     1       1.733   5.640   0.043  0.00  0.00    +0.199 A 
ATOM      7  O   UNL     1       2.183   4.365   0.045  0.00  0.00    -0.432 OA
ATOM      8  C   UNL     1       1.161   3.487   0.073  0.00  0.00    +0.230 A 
ATOM      9  N   UNL     1       1.116   2.162   0.087  0.00  0.00    -0.217 NA
ATOM     10  C   UNL     1      -2.551   4.321   0.141  0.00  0.00    +0.070 C 
ATOM     11  C   UNL     1      -3.712   3.402  -0.247  0.00  0.00    +0.068 C 
ATOM     12  O   UNL     1      -3.619   2.200   0.526  0.00  0.00    -0.369 OA
ATOM     13  C   UNL     1      -2.521   1.370   0.147  0.00  0.00    +0.197 C 
ATOM     14  C   UNL     1      -5.041   4.101   0.047  0.00  0.00    +0.041 C 
ATOM     15  C   UNL     1      -3.626   3.067  -1.738  0.00  0.00    +0.041 C 
ENDROOT
BRANCH   5  16
ATOM     16  N   UNL     1      -0.490   6.734   0.078  0.00  0.00    -0.354 N 
ATOM     17  H   UNL     1      -1.452   6.608   0.098  0.00  0.00    +0.142 HD
ATOM     18  H   UNL     1      -0.118   7.629   0.063  0.00  0.00    +0.142 HD
ENDBRANCH   5  16
BRANCH   6  19
ATOM     19  C   UNL     1       2.547   6.795   0.018  0.00  0.00    +0.230 C 
ATOM     20  O   UNL     1       2.037   7.898  -0.080  0.00  0.00    -0.283 OA
BRANCH  19  21
ATOM     21  C   UNL     1       4.018   6.666   0.111  0.00  0.00    +0.026 A 
ATOM     22  C   UNL     1       4.612   5.403   0.100  0.00  0.00    +0.013 A 
ATOM     23  C   UNL     1       5.984   5.289   0.181  0.00  0.00    +0.016 A 
ATOM     24  C   UNL     1       6.771   6.424   0.285  0.00  0.00    +0.018 A 
ATOM     25  C   UNL     1       6.187   7.679   0.303  0.00  0.00    +0.016 A 
ATOM     26  C   UNL     1       4.816   7.806   0.216  0.00  0.00    +0.013 A 
ATOM     27 BR   UNL     1       8.651   6.259   0.404  0.00  0.00    -0.050 Br
ENDBRANCH  19  21
ENDBRANCH   6  19
BRANCH   1  28
ATOM     28  C   UNL     1      -0.006   0.000   0.129  0.00  0.00    +0.055 C 
BRANCH  28  30
ATOM     29  C   UNL     1       0.043  -2.025   1.592  0.00  0.00    +0.004 C 
ATOM     30  C   UNL     1       0.025  -0.495   1.576  0.00  0.00    +0.003 C 
ENDBRANCH  28  30
ENDBRANCH   1  28
TORSDOF 5
