REMARK  Name = ZINC06320937
REMARK  13 active torsions:
REMARK  status: ('A' for Active; 'I' for Inactive)
REMARK    1  A    between atoms: C_1  and  C_2
REMARK    2  A    between atoms: C_6  and  C_15
REMARK    3  A    between atoms: C_13  and  C_14
REMARK    4  A    between atoms: C_15  and  C_17
REMARK    5  A    between atoms: C_15  and  N_69
REMARK    6  A    between atoms: N_21  and  C_22
REMARK    7  A    between atoms: C_22  and  C_23
REMARK    8  A    between atoms: C_22  and  C_24
REMARK    9  A    between atoms: C_22  and  C_25
REMARK   10  A    between atoms: C_26  and  C_27
REMARK   11  A    between atoms: C_26  and  N_69
REMARK   12  A    between atoms: C_34  and  C_35
REMARK   13  A    between atoms: C_34  and  N_69
REMARK                            x       y       z     vdW  Elec       q    Type
REMARK                         _______ _______ _______ _____ _____    ______ ____
ROOT
ATOM      1  C   UNL     1      -0.481   0.876   1.228  0.00  0.00    +0.040 C 
ENDROOT
BRANCH   1   7
ATOM      2  C   UNL     1      -4.529  -0.385   7.364  0.00  0.00    +0.044 C 
ATOM      3  C   UNL     1      -3.742   0.545   6.476  0.00  0.00    -0.047 A 
ATOM      4  C   UNL     1      -3.177   0.068   5.327  0.00  0.00    +0.013 A 
ATOM      5  C   UNL     1      -2.446   0.931   4.504  0.00  0.00    -0.001 A 
ATOM      6  C   UNL     1      -1.831   0.454   3.264  0.00  0.00    +0.017 A 
ATOM      7  C   UNL     1      -1.131   1.335   2.508  0.00  0.00    +0.011 A 
ATOM      8  C   UNL     1      -1.012   2.682   2.913  0.00  0.00    +0.251 A 
ATOM      9  O   UNL     1      -0.381   3.458   2.217  0.00  0.00    -0.268 OA
ATOM     10  N   UNL     1      -1.577   3.130   4.048  0.00  0.00    -0.322 N 
ATOM     11  H   UNL     1      -1.476   4.062   4.296  0.00  0.00    +0.169 HD
ATOM     12  C   UNL     1      -2.298   2.284   4.863  0.00  0.00    +0.049 A 
ATOM     13  C   UNL     1      -2.883   2.747   6.037  0.00  0.00    +0.030 A 
ATOM     14  C   UNL     1      -3.598   1.879   6.834  0.00  0.00    -0.046 A 
ATOM     15  C   UNL     1      -4.231   2.382   8.105  0.00  0.00    +0.044 C 
ENDBRANCH   1   7
BRANCH   1  16
ATOM     16  C   UNL     1      -1.132   1.568   0.059  0.00  0.00    +0.143 A 
ATOM     17  N   UNL     1      -0.951   2.812  -0.314  0.00  0.00    -0.115 NA
ATOM     18  N   UNL     1      -1.680   3.025  -1.355  0.00  0.00    -0.023 NA
ATOM     19  N   UNL     1      -2.326   1.952  -1.651  0.00  0.00    -0.043 NA
ATOM     20  N   UNL     1      -2.015   1.031  -0.803  0.00  0.00    -0.225 N 
BRANCH  20  21
ATOM     21  C   UNL     1      -2.528  -0.341  -0.781  0.00  0.00    +0.059 C 
ATOM     22  C   UNL     1      -3.132  -0.638   0.593  0.00  0.00    +0.036 C 
ATOM     23  C   UNL     1      -3.604  -0.501  -1.857  0.00  0.00    +0.036 C 
ATOM     24  C   UNL     1      -1.382  -1.318  -1.056  0.00  0.00    +0.036 C 
ENDBRANCH  20  21
ENDBRANCH   1  16
BRANCH   1  25
ATOM     25  N   UNL     1       0.952   1.236   1.256  0.00  0.00    +0.397 N 
ATOM     26  H   UNL     1       1.043   2.253   1.157  0.00  0.00    -0.079 HD
BRANCH  25  27
ATOM     27  C   UNL     1       1.660   0.579   0.137  0.00  0.00    -0.041 C 
BRANCH  27  28
ATOM     28  C   UNL     1       1.527   1.444  -1.089  0.00  0.00    -0.064 A 
ATOM     29  C   UNL     1       0.578   1.141  -2.048  0.00  0.00    +0.003 A 
ATOM     30  C   UNL     1       0.451   1.938  -3.171  0.00  0.00    +0.020 A 
ATOM     31  C   UNL     1       1.282   3.031  -3.340  0.00  0.00    +0.041 A 
ATOM     32  C   UNL     1       2.235   3.330  -2.383  0.00  0.00    +0.020 A 
ATOM     33  C   UNL     1       2.357   2.536  -1.258  0.00  0.00    +0.003 A 
ATOM     34 CL   UNL     1       1.128   4.028  -4.753  0.00  0.00    -0.084 Cl
ENDBRANCH  27  28
ENDBRANCH  25  27
BRANCH  25  35
ATOM     35  C   UNL     1       1.551   0.824   2.544  0.00  0.00    -0.001 C 
BRANCH  35  36
ATOM     36  C   UNL     1       2.880   1.517   2.703  0.00  0.00    +0.089 A 
ATOM     37  C   UNL     1       3.083   2.697   3.317  0.00  0.00    +0.042 A 
ATOM     38  C   UNL     1       4.469   2.968   3.234  0.00  0.00    +0.041 A 
ATOM     39  C   UNL     1       5.029   1.938   2.575  0.00  0.00    +0.195 A 
ATOM     40  O   UNL     1       4.063   1.059   2.260  0.00  0.00    -0.470 OA
ENDBRANCH  35  36
ENDBRANCH  25  35
ENDBRANCH   1  25
TORSDOF 8
