REMARK  Name = ZINC13423783
REMARK  13 active torsions:
REMARK  status: ('A' for Active; 'I' for Inactive)
REMARK    1  A    between atoms: C_1  and  C_2
REMARK    2  A    between atoms: C_2  and  C_3
REMARK    3  A    between atoms: C_2  and  C_4
REMARK    4  A    between atoms: C_4  and  C_5
REMARK    5  A    between atoms: C_5  and  C_6
REMARK    6  A    between atoms: C_6  and  C_7
REMARK    7  A    between atoms: C_7  and  C_9
REMARK    8  A    between atoms: C_7  and  C_10
REMARK    9  A    between atoms: C_16  and  C_37
REMARK   10  A    between atoms: C_26  and  O_36
REMARK   11  A    between atoms: C_27  and  C_35
REMARK   12  A    between atoms: C_30  and  O_33
REMARK   13  A    between atoms: O_33  and  C_34
REMARK                            x       y       z     vdW  Elec       q    Type
REMARK                         _______ _______ _______ _____ _____    ______ ____
ROOT
ATOM      1  C   UNL     1      -0.973   0.516   2.319  0.00  0.00    -0.002 C 
ATOM      2  C   UNL     1      -2.207   1.026   3.102  0.00  0.00    +0.004 C 
ATOM      3  C   UNL     1      -2.833   2.161   2.251  0.00  0.00    +0.004 C 
ATOM      4  C   UNL     1      -2.182   1.981   0.872  0.00  0.00    -0.001 C 
ATOM      5  C   UNL     1      -0.736   1.587   1.241  0.00  0.00    -0.026 C 
ATOM      6  C   UNL     1      -0.013   1.088   0.008  0.00  0.00    +0.007 C 
ATOM      7  C   UNL     1      -0.755   1.597  -1.242  0.00  0.00    +0.005 C 
ATOM      8  C   UNL     1      -1.116   3.065  -1.052  0.00  0.00    +0.002 C 
ATOM      9  C   UNL     1      -2.188   3.236   0.002  0.00  0.00    +0.004 C 
ATOM     10  C   UNL     1      -3.603   3.405  -0.541  0.00  0.00    +0.081 C 
ATOM     11  C   UNL     1      -3.633   4.166  -1.837  0.00  0.00    +0.165 C 
ATOM     12  O   UNL     1      -4.400   5.082  -2.012  0.00  0.00    -0.294 OA
ATOM     13  C   UNL     1      -2.667   3.732  -2.917  0.00  0.00    +0.131 C 
ATOM     14  C   UNL     1      -1.267   3.830  -2.336  0.00  0.00    +0.007 C 
ATOM     15  C   UNL     1      -0.252   3.397  -3.390  0.00  0.00    +0.012 C 
ATOM     16  C   UNL     1      -0.341   4.288  -4.621  0.00  0.00    +0.032 C 
ATOM     17  C   UNL     1      -1.739   4.383  -5.187  0.00  0.00    +0.121 C 
ATOM     18  C   UNL     1      -2.838   4.561  -4.168  0.00  0.00    +0.074 C 
ATOM     19  C   UNL     1      -0.997   5.302  -1.999  0.00  0.00    +0.015 C 
ATOM     20  C   UNL     1       0.024   2.750   1.878  0.00  0.00    +0.012 C 
ENDROOT
BRANCH   1  21
ATOM     21  C   UNL     1       0.240   0.420   3.242  0.00  0.00    -0.010 C 
ATOM     22  C   UNL     1       1.455  -0.050   2.440  0.00  0.00    +0.008 C 
BRANCH  21  23
ATOM     23  C   UNL     1      -0.049  -0.580   4.363  0.00  0.00    +0.003 C 
BRANCH  23  24
ATOM     24  C   UNL     1       1.115  -0.584   5.356  0.00  0.00    +0.001 C 
BRANCH  24  25
ATOM     25  C   UNL     1       0.825  -1.585   6.477  0.00  0.00    +0.003 C 
BRANCH  25  27
ATOM     26  C   UNL     1       2.078  -0.225   8.157  0.00  0.00    +0.007 C 
ATOM     27  C   UNL     1       1.989  -1.589   7.470  0.00  0.00    -0.017 C 
ATOM     28  C   UNL     1       1.758  -2.676   8.521  0.00  0.00    +0.007 C 
ENDBRANCH  25  27
ENDBRANCH  24  25
ENDBRANCH  23  24
ENDBRANCH  21  23
ENDBRANCH   1  21
BRANCH  17  29
ATOM     29  O   UNL     1      -2.006   3.200  -5.944  0.00  0.00    -0.380 OA
ATOM     30  C   UNL     1      -1.642   3.297  -7.322  0.00  0.00    +0.194 C 
ENDBRANCH  17  29
BRANCH  13  31
ATOM     31  O   UNL     1      -2.938   2.363  -3.236  0.00  0.00    -0.380 OA
ATOM     32  H   UNL     1      -3.816   2.214  -3.614  0.00  0.00    +0.211 HD
ENDBRANCH  13  31
TORSDOF 7
