REMARK  Name = ZINC36539406
REMARK  15 active torsions:
REMARK  status: ('A' for Active; 'I' for Inactive)
REMARK    1  A    between atoms: C_1  and  C_2
REMARK    2  A    between atoms: C_2  and  C_3
REMARK    3  A    between atoms: C_2  and  C_4
REMARK    4  A    between atoms: C_2  and  C_5
REMARK    5  A    between atoms: C_5  and  C_6
REMARK    6  A    between atoms: C_6  and  C_7
REMARK    7  A    between atoms: C_6  and  C_8
REMARK    8  A    between atoms: C_6  and  N_9
REMARK    9  A    between atoms: C_10  and  C_12
REMARK   10  A    between atoms: C_12  and  C_14
REMARK   11  A    between atoms: C_12  and  N_21
REMARK   12  A    between atoms: C_19  and  O_20
REMARK   13  A    between atoms: N_21  and  C_22
REMARK   14  A    between atoms: C_23  and  C_25
REMARK   15  A    between atoms: C_28  and  N_31
REMARK                            x       y       z     vdW  Elec       q    Type
REMARK                         _______ _______ _______ _____ _____    ______ ____
ROOT
ATOM      1  C   UNL     1       5.359  -0.445  -4.247  0.00  0.00    +0.196 C 
ENDROOT
BRANCH   1   2
ATOM      2  C   UNL     1       5.292  -1.934  -4.470  0.00  0.00    +0.023 A 
ATOM      3  C   UNL     1       4.791  -2.759  -3.481  0.00  0.00    +0.009 A 
ATOM      4  C   UNL     1       4.729  -4.125  -3.684  0.00  0.00    +0.001 A 
ATOM      5  C   UNL     1       5.169  -4.670  -4.877  0.00  0.00    +0.004 A 
ATOM      6  C   UNL     1       5.670  -3.850  -5.868  0.00  0.00    +0.046 A 
ATOM      7  C   UNL     1       5.728  -2.478  -5.669  0.00  0.00    +0.122 A 
BRANCH   7   8
ATOM      8  O   UNL     1       6.215  -1.668  -6.646  0.00  0.00    -0.506 OA
ATOM      9  H   UNL     1       7.170  -1.520  -6.594  0.00  0.00    +0.292 HD
ENDBRANCH   7   8
ENDBRANCH   1   2
BRANCH   1  11
ATOM     10  N   UNL     1       3.168  -0.339  -3.104  0.00  0.00    -0.308 N 
ATOM     11  C   UNL     1       4.489  -0.073  -3.075  0.00  0.00    +0.239 C 
ATOM     12  O   UNL     1       4.978   0.466  -2.104  0.00  0.00    -0.273 OA
ATOM     13  H   UNL     1       2.777  -0.769  -3.880  0.00  0.00    +0.149 HD
BRANCH  10  14
ATOM     14  C   UNL     1       2.322   0.024  -1.964  0.00  0.00    +0.030 C 
ATOM     15  C   UNL     1       2.535   1.499  -1.619  0.00  0.00    +0.031 C 
ATOM     16  C   UNL     1       2.695  -0.841  -0.758  0.00  0.00    +0.031 C 
BRANCH  14  17
ATOM     17  C   UNL     1       0.854  -0.209  -2.324  0.00  0.00    +0.031 C 
BRANCH  17  19
ATOM     18  C   UNL     1       1.035  -0.725  -4.762  0.00  0.00    +0.010 C 
ATOM     19  C   UNL     1       0.585   0.317  -3.735  0.00  0.00    -0.036 C 
ATOM     20  C   UNL     1       1.363   1.616  -3.952  0.00  0.00    +0.010 C 
ATOM     21  C   UNL     1      -0.912   0.585  -3.903  0.00  0.00    +0.010 C 
ENDBRANCH  17  19
ENDBRANCH  14  17
ENDBRANCH  10  14
ENDBRANCH   1  11
BRANCH   1  22
ATOM     22  N   UNL     1       6.744  -0.055  -3.972  0.00  0.00    -0.285 N 
ATOM     23  C   UNL     1       7.489  -0.709  -2.893  0.00  0.00    +0.133 C 
ATOM     24  C   UNL     1       7.332   0.907  -4.711  0.00  0.00    +0.247 C 
ATOM     25  O   UNL     1       6.702   1.476  -5.581  0.00  0.00    -0.270 OA
BRANCH  24  26
ATOM     26  C   UNL     1       8.744   1.269  -4.463  0.00  0.00    +0.037 A 
ATOM     27  C   UNL     1       9.640   0.312  -3.984  0.00  0.00    +0.015 A 
ATOM     28  C   UNL     1      10.956   0.656  -3.755  0.00  0.00    +0.033 A 
ATOM     29  C   UNL     1      11.389   1.948  -3.999  0.00  0.00    +0.126 A 
ATOM     30  C   UNL     1      10.506   2.902  -4.474  0.00  0.00    +0.033 A 
ATOM     31  C   UNL     1       9.188   2.569  -4.712  0.00  0.00    +0.015 A 
BRANCH  29  32
ATOM     32  N   UNL     1      12.802   2.311  -3.751  0.00  0.00    +0.056 N 
ATOM     33  O   UNL     1      13.575   1.479  -3.336  0.00  0.00    -0.126 OA
ATOM     34  O   UNL     1      13.183   3.438  -3.963  0.00  0.00    -0.126 OA
ENDBRANCH  29  32
ENDBRANCH  24  26
ENDBRANCH   1  22
TORSDOF 9
