REMARK  Name = ZINC02034406
REMARK  3 active torsions:
REMARK  status: ('A' for Active; 'I' for Inactive)
REMARK    1  A    between atoms: C_1  and  C_2
REMARK    2  A    between atoms: C_1  and  O_7
REMARK    3  A    between atoms: C_2  and  C_4
REMARK                            x       y       z     vdW  Elec       q    Type
REMARK                         _______ _______ _______ _____ _____    ______ ____
ROOT
ATOM      1  C   UNL     1      -0.729   1.579   1.267  0.00  0.00    +0.120 C 
ATOM      2 CL   UNL     1      -0.753   3.382   1.277  0.00  0.00    -0.118 Cl
ENDROOT
BRANCH   1   3
ATOM      3  C   UNL     1      -0.013   1.086   0.008  0.00  0.00    +0.130 C 
ATOM      4 CL   UNL     1      -0.885   1.683  -1.453  0.00  0.00    -0.124 Cl
ENDBRANCH   1   3
BRANCH   1   5
ATOM      5  C   UNL     1       0.011   1.072   2.506  0.00  0.00    +0.176 C 
BRANCH   5   6
ATOM      6  O   UNL     1       1.382   1.469   2.438  0.00  0.00    -0.394 OA
ATOM      7  H   UNL     1       1.913   1.182   3.193  0.00  0.00    +0.209 HD
ENDBRANCH   5   6
ENDBRANCH   1   5
TORSDOF 3
