REMARK  Name = ZINC14101058
REMARK  4 active torsions:
REMARK  status: ('A' for Active; 'I' for Inactive)
REMARK    1  A    between atoms: C_1  and  C_2
REMARK    2  A    between atoms: N_11  and  S_12
REMARK    3  A    between atoms: S_12  and  C_15
REMARK    4  A    between atoms: C_25  and  C_27
REMARK                            x       y       z     vdW  Elec       q    Type
REMARK                         _______ _______ _______ _____ _____    ______ ____
ROOT
ATOM      1  S   UNL     1      -0.222  -4.885  -1.349  0.00  0.00    +0.075 S 
ATOM      2  O   UNL     1      -0.583  -6.205  -0.969  0.00  0.00    -0.150 OA
ATOM      3  O   UNL     1      -1.094  -4.038  -2.086  0.00  0.00    -0.150 OA
ENDROOT
BRANCH   1   4
ATOM      4  C   UNL     1       1.262  -5.019  -2.289  0.00  0.00    +0.109 A 
ATOM      5  C   UNL     1       1.600  -4.026  -3.191  0.00  0.00    +0.030 A 
ATOM      6  C   UNL     1       2.762  -4.132  -3.928  0.00  0.00    +0.026 A 
ATOM      7  C   UNL     1       3.592  -5.236  -3.764  0.00  0.00    +0.040 A 
ATOM      8  C   UNL     1       3.254  -6.229  -2.858  0.00  0.00    -0.024 A 
ATOM      9  C   UNL     1       2.088  -6.113  -2.120  0.00  0.00    +0.034 A 
ATOM     10  C   UNL     1       4.134  -7.433  -2.647  0.00  0.00    +0.038 C 
ATOM     11  C   UNL     1       5.058  -7.639  -3.847  0.00  0.00    +0.024 C 
ATOM     12  C   UNL     1       5.780  -6.319  -4.149  0.00  0.00    +0.114 C 
ATOM     13  N   UNL     1       4.764  -5.327  -4.526  0.00  0.00    -0.271 N 
ATOM     14  C   UNL     1       4.957  -4.519  -5.587  0.00  0.00    +0.217 C 
ATOM     15  O   UNL     1       4.140  -3.662  -5.853  0.00  0.00    -0.276 OA
ATOM     16  C   UNL     1       6.187  -4.679  -6.443  0.00  0.00    +0.109 C 
ENDBRANCH   1   4
BRANCH   1  27
ATOM     17  C   UNL     1       0.183   1.595   0.100  0.00  0.00    +0.044 C 
ATOM     18  C   UNL     1       0.178   0.088   0.090  0.00  0.00    -0.050 A 
ATOM     19  C   UNL     1       0.147  -0.594  -1.113  0.00  0.00    +0.005 A 
ATOM     20  C   UNL     1       0.141  -1.974  -1.122  0.00  0.00    +0.025 A 
ATOM     21  C   UNL     1       0.166  -2.678   0.077  0.00  0.00    +0.054 A 
ATOM     22  C   UNL     1       0.200  -1.994   1.282  0.00  0.00    -0.024 A 
ATOM     23  C   UNL     1       0.209  -0.609   1.282  0.00  0.00    +0.008 A 
ATOM     24  C   UNL     1       0.238  -2.722   2.600  0.00  0.00    +0.038 C 
ATOM     25  C   UNL     1      -0.271  -4.154   2.435  0.00  0.00    +0.025 C 
ATOM     26  C   UNL     1       0.480  -4.817   1.273  0.00  0.00    +0.132 C 
ATOM     27  N   UNL     1       0.154  -4.077   0.047  0.00  0.00    -0.203 N 
ENDBRANCH   1  27
TORSDOF 2
