REMARK  Name = ZINC02255362
REMARK  7 active torsions:
REMARK  status: ('A' for Active; 'I' for Inactive)
REMARK    1  A    between atoms: C_1  and  O_2
REMARK    2  A    between atoms: O_2  and  C_3
REMARK    3  A    between atoms: C_6  and  C_9
REMARK    4  A    between atoms: C_10  and  C_11
REMARK    5  A    between atoms: N_13  and  C_14
REMARK    6  A    between atoms: C_17  and  C_30
REMARK    7  A    between atoms: C_20  and  C_24
REMARK                            x       y       z     vdW  Elec       q    Type
REMARK                         _______ _______ _______ _____ _____    ______ ____
ROOT
ATOM      1  C   UNL     1       3.815  -6.383  -6.659  0.00  0.00    +0.241 C 
ATOM      2  N   UNL     1       4.386  -5.766  -7.662  0.00  0.00    -0.140 NA
ATOM      3  N   UNL     1       4.888  -6.729  -8.540  0.00  0.00    -0.180 N 
ATOM      4  C   UNL     1       5.614  -6.647  -9.815  0.00  0.00    +0.156 C 
ATOM      5  C   UNL     1       5.986  -7.966 -10.466  0.00  0.00    +0.030 C 
ATOM      6  C   UNL     1       5.623  -9.095  -9.827  0.00  0.00    +0.073 C 
ATOM      7  N   UNL     1       4.951  -9.062  -8.650  0.00  0.00    -0.217 NA
ATOM      8  C   UNL     1       4.597  -7.960  -8.029  0.00  0.00    +0.211 C 
ATOM      9  N   UNL     1       3.930  -7.747  -6.848  0.00  0.00    -0.254 N 
ATOM     10  H   UNL     1       3.595  -8.435  -6.252  0.00  0.00    +0.158 HD
ENDROOT
BRANCH   4  11
ATOM     11  C   UNL     1       4.765  -5.870 -10.787  0.00  0.00    -0.021 A 
ATOM     12  C   UNL     1       3.396  -6.063 -10.818  0.00  0.00    +0.008 A 
ATOM     13  C   UNL     1       2.617  -5.351 -11.709  0.00  0.00    +0.038 A 
ATOM     14  C   UNL     1       3.207  -4.443 -12.572  0.00  0.00    +0.123 A 
ATOM     15  C   UNL     1       4.577  -4.250 -12.541  0.00  0.00    +0.038 A 
ATOM     16  C   UNL     1       5.354  -4.960 -11.645  0.00  0.00    +0.008 A 
ATOM     17  F   UNL     1       2.446  -3.746 -13.444  0.00  0.00    -0.205 F 
ENDBRANCH   4  11
BRANCH   6  18
ATOM     18  C   UNL     1       5.966 -10.409 -10.428  0.00  0.00    +0.000 A 
ATOM     19  C   UNL     1       6.661 -10.466 -11.634  0.00  0.00    +0.010 A 
ATOM     20  C   UNL     1       6.978 -11.690 -12.188  0.00  0.00    +0.001 A 
ATOM     21  C   UNL     1       6.606 -12.858 -11.548  0.00  0.00    +0.000 A 
ATOM     22  C   UNL     1       5.917 -12.807 -10.350  0.00  0.00    +0.001 A 
ATOM     23  C   UNL     1       5.600 -11.589  -9.784  0.00  0.00    +0.010 A 
ENDBRANCH   6  18
BRANCH   1  26
ATOM     24  C   UNL     1       3.165  -4.466  -5.532  0.00  0.00    +0.273 C 
ATOM     25  O   UNL     1       3.717  -3.716  -6.514  0.00  0.00    -0.266 OA
ATOM     26  N   UNL     1       3.212  -5.780  -5.602  0.00  0.00    -0.174 NA
BRANCH  24  28
ATOM     27  C   UNL     1       2.488  -2.489  -4.357  0.00  0.00    +0.013 C 
ATOM     28  C   UNL     1       2.537  -3.837  -4.429  0.00  0.00    +0.073 C 
BRANCH  27  32
ATOM     29  C   UNL     1       0.605  -0.607  -1.055  0.00  0.00    +0.120 A 
ATOM     30  C   UNL     1       1.172   0.166  -2.061  0.00  0.00    +0.046 A 
ATOM     31  C   UNL     1       1.785  -0.440  -3.135  0.00  0.00    +0.011 A 
ATOM     32  C   UNL     1       1.836  -1.836  -3.212  0.00  0.00    -0.025 A 
ATOM     33  C   UNL     1       1.264  -2.610  -2.196  0.00  0.00    +0.011 A 
ATOM     34  C   UNL     1       0.658  -1.994  -1.123  0.00  0.00    +0.046 A 
BRANCH  29  36
ATOM     35  C   UNL     1      -0.017   1.425   0.010  0.00  0.00    +0.277 C 
ATOM     36  O   UNL     1       0.002  -0.004   0.002  0.00  0.00    -0.495 OA
ENDBRANCH  29  36
ENDBRANCH  27  32
ENDBRANCH  24  28
ENDBRANCH   1  26
TORSDOF 6
