REMARK  Name = ZINC39605769
REMARK  8 active torsions:
REMARK  status: ('A' for Active; 'I' for Inactive)
REMARK    1  A    between atoms: C_1  and  C_2
REMARK    2  A    between atoms: C_2  and  C_3
REMARK    3  A    between atoms: C_3  and  C_5
REMARK    4  A    between atoms: C_3  and  C_6
REMARK    5  A    between atoms: C_6  and  N_7
REMARK    6  A    between atoms: C_8  and  C_10
REMARK    7  A    between atoms: C_21  and  C_23
REMARK    8  A    between atoms: C_28  and  C_29
REMARK                            x       y       z     vdW  Elec       q    Type
REMARK                         _______ _______ _______ _____ _____    ______ ____
ROOT
ATOM      1  C   UNL     1      -3.759  -4.566   0.344  0.00  0.00    +0.100 C 
ATOM      2  C   UNL     1      -4.769  -4.014  -0.687  0.00  0.00    +0.121 C 
ATOM      3  N   UNL     1      -4.976  -5.130  -1.641  0.00  0.00    -0.296 N 
ATOM      4  C   UNL     1      -5.005  -6.343  -0.789  0.00  0.00    +0.115 C 
ATOM      5  C   UNL     1      -3.920  -6.094   0.277  0.00  0.00    -0.004 C 
ATOM      6  C   UNL     1      -4.373  -6.637   1.629  0.00  0.00    -0.010 C 
ATOM      7  C   UNL     1      -4.469  -8.164   1.554  0.00  0.00    -0.082 C 
ATOM      8  N   UNL     1      -3.160  -8.722   1.193  0.00  0.00    +0.379 N 
ATOM      9  C   UNL     1      -2.775  -8.267  -0.149  0.00  0.00    -0.082 C 
ATOM     10  C   UNL     1      -2.607  -6.745  -0.146  0.00  0.00    -0.010 C 
ATOM     11  C   UNL     1      -5.109  -5.058  -2.980  0.00  0.00    +0.247 C 
ATOM     12  O   UNL     1      -5.375  -6.056  -3.619  0.00  0.00    -0.270 OA
ATOM     13  H   UNL     1      -2.470  -8.415   1.862  0.00  0.00    -0.086 HD
ATOM     14  H   UNL     1      -3.211  -9.729   1.204  0.00  0.00    -0.086 HD
ENDROOT
BRANCH  11  15
ATOM     15  C   UNL     1      -4.930  -3.763  -3.672  0.00  0.00    +0.049 A 
ATOM     16  C   UNL     1      -5.373  -2.582  -3.075  0.00  0.00    +0.013 A 
ATOM     17  C   UNL     1      -5.203  -1.378  -3.725  0.00  0.00    +0.001 A 
ATOM     18  C   UNL     1      -4.594  -1.339  -4.968  0.00  0.00    +0.001 A 
ATOM     19  C   UNL     1      -4.153  -2.506  -5.565  0.00  0.00    +0.013 A 
ATOM     20  C   UNL     1      -4.312  -3.717  -4.923  0.00  0.00    +0.067 A 
BRANCH  20  21
ATOM     21  C   UNL     1      -3.825  -4.986  -5.572  0.00  0.00    +0.418 C 
ATOM     22  F   UNL     1      -3.247  -4.685  -6.810  0.00  0.00    -0.166 F 
ATOM     23  F   UNL     1      -2.873  -5.596  -4.748  0.00  0.00    -0.166 F 
ATOM     24  F   UNL     1      -4.904  -5.856  -5.762  0.00  0.00    -0.166 F 
ENDBRANCH  20  21
ENDBRANCH  11  15
BRANCH   1  26
ATOM     25  N   UNL     1      -1.411  -4.043   0.921  0.00  0.00    -0.315 N 
ATOM     26  C   UNL     1      -2.355  -4.169  -0.033  0.00  0.00    +0.218 C 
ATOM     27  O   UNL     1      -2.074  -3.963  -1.194  0.00  0.00    -0.275 OA
ATOM     28  H   UNL     1      -1.635  -4.208   1.850  0.00  0.00    +0.149 HD
BRANCH  25  29
ATOM     29  C   UNL     1      -0.046  -3.658   0.555  0.00  0.00    +0.107 C 
BRANCH  29  30
ATOM     30  C   UNL     1       0.820  -3.587   1.815  0.00  0.00    +0.003 C 
ATOM     31  C   UNL     1       0.311  -2.464   2.720  0.00  0.00    +0.009 C 
BRANCH  30  33
ATOM     32  C   UNL     1       3.157  -3.360   2.667  0.00  0.00    +0.004 C 
ATOM     33  C   UNL     1       2.271  -3.307   1.421  0.00  0.00    +0.001 C 
ENDBRANCH  30  33
ENDBRANCH  29  30
ENDBRANCH  25  29
ENDBRANCH   1  26
TORSDOF 6
