REMARK  Name = ZINC66187688
REMARK  14 active torsions:
REMARK  status: ('A' for Active; 'I' for Inactive)
REMARK    1  A    between atoms: C_1  and  C_2
REMARK    2  A    between atoms: C_2  and  C_3
REMARK    3  A    between atoms: C_3  and  C_5
REMARK    4  A    between atoms: C_3  and  N_6
REMARK    5  A    between atoms: N_6  and  C_7
REMARK    6  A    between atoms: N_6  and  C_8
REMARK    7  A    between atoms: C_8  and  C_9
REMARK    8  A    between atoms: C_9  and  N_10
REMARK    9  A    between atoms: N_13  and  C_14
REMARK   10  A    between atoms: C_14  and  C_16
REMARK   11  A    between atoms: C_14  and  C_17
REMARK   12  A    between atoms: C_20  and  S_23
REMARK   13  A    between atoms: S_23  and  N_26
REMARK   14  A    between atoms: N_26  and  C_27
REMARK                            x       y       z     vdW  Elec       q    Type
REMARK                         _______ _______ _______ _____ _____    ______ ____
ROOT
ATOM      1  N   UNL     1      -5.648  -0.265  -2.075  0.00  0.00    -0.301 N 
ATOM      2  C   UNL     1      -6.504   0.003  -3.081  0.00  0.00    +0.300 C 
ATOM      3  O   UNL     1      -6.095   0.506  -4.110  0.00  0.00    -0.253 OA
ATOM      4  N   UNL     1      -7.814  -0.285  -2.947  0.00  0.00    -0.293 N 
ATOM      5  H   UNL     1      -5.975  -0.665  -1.254  0.00  0.00    +0.150 HD
ATOM      6  H   UNL     1      -8.140  -0.686  -2.126  0.00  0.00    +0.151 HD
ENDROOT
BRANCH   4   7
ATOM      7  C   UNL     1      -8.744   0.006  -4.040  0.00  0.00    +0.102 C 
ATOM      8  C   UNL     1      -8.741  -1.155  -5.036  0.00  0.00    +0.033 C 
BRANCH   7   9
ATOM      9  C   UNL     1     -10.133   0.187  -3.483  0.00  0.00    -0.027 A 
ATOM     10  C   UNL     1     -10.582  -0.634  -2.466  0.00  0.00    +0.007 A 
ATOM     11  C   UNL     1     -11.856  -0.469  -1.955  0.00  0.00    +0.029 A 
ATOM     12  C   UNL     1     -12.681   0.518  -2.462  0.00  0.00    +0.105 A 
ATOM     13  C   UNL     1     -12.231   1.340  -3.478  0.00  0.00    +0.029 A 
ATOM     14  C   UNL     1     -10.956   1.177  -3.986  0.00  0.00    +0.007 A 
BRANCH  12  15
ATOM     15  S   UNL     1     -14.305   0.729  -1.812  0.00  0.00    +0.058 S 
ATOM     16  O   UNL     1     -15.070   1.363  -2.827  0.00  0.00    -0.153 OA
ATOM     17  O   UNL     1     -14.679  -0.519  -1.243  0.00  0.00    -0.153 OA
BRANCH  15  18
ATOM     18  N   UNL     1     -14.195   1.806  -0.559  0.00  0.00    -0.193 NA
ATOM     19  C   UNL     1     -13.798   3.192  -0.818  0.00  0.00    +0.127 C 
ATOM     20  H   UNL     1     -14.393   1.519   0.346  0.00  0.00    +0.148 HD
ENDBRANCH  15  18
ENDBRANCH  12  15
ENDBRANCH   7   9
ENDBRANCH   4   7
BRANCH   1  21
ATOM     21  C   UNL     1      -4.225   0.049  -2.222  0.00  0.00    +0.087 C 
BRANCH  21  22
ATOM     22  C   UNL     1      -3.481  -0.352  -0.946  0.00  0.00    -0.060 C 
BRANCH  22  23
ATOM     23  N   UNL     1      -2.053  -0.037  -1.093  0.00  0.00    +0.381 N 
ATOM     24  C   UNL     1      -1.881   1.417  -1.203  0.00  0.00    -0.096 C 
ATOM     25  H   UNL     1      -1.695  -0.482  -1.924  0.00  0.00    -0.082 HD
BRANCH  23  26
ATOM     26  C   UNL     1      -1.320  -0.530   0.081  0.00  0.00    -0.072 C 
ATOM     27  C   UNL     1      -1.961   0.028   1.353  0.00  0.00    -0.013 C 
BRANCH  26  29
ATOM     28  C   UNL     1      -0.621  -2.619  -1.098  0.00  0.00    +0.002 C 
ATOM     29  C   UNL     1      -1.373  -2.059   0.111  0.00  0.00    -0.019 C 
ENDBRANCH  26  29
ENDBRANCH  23  26
ENDBRANCH  22  23
ENDBRANCH  21  22
ENDBRANCH   1  21
TORSDOF 9
