REMARK  Name = ZINC59967472
REMARK  6 active torsions:
REMARK  status: ('A' for Active; 'I' for Inactive)
REMARK    1  A    between atoms: C_1  and  C_2
REMARK    2  A    between atoms: C_2  and  C_4
REMARK    3  A    between atoms: C_2  and  N_13
REMARK    4  A    between atoms: C_4  and  C_5
REMARK    5  A    between atoms: C_5  and  C_6
REMARK    6  A    between atoms: C_14  and  C_16
REMARK                            x       y       z     vdW  Elec       q    Type
REMARK                         _______ _______ _______ _____ _____    ______ ____
ROOT
ATOM      1  N   UNL     1       0.711  -0.489   1.189  0.00  0.00    -0.307 N 
ATOM      2  C   UNL     1       2.054  -0.600   1.174  0.00  0.00    +0.265 C 
ATOM      3  O   UNL     1       2.678  -0.297   0.175  0.00  0.00    -0.268 OA
ATOM      4  H   UNL     1       0.213  -0.731   1.986  0.00  0.00    +0.149 HD
ENDROOT
BRANCH   2   5
ATOM      5  C   UNL     1       2.767  -1.088   2.368  0.00  0.00    +0.154 A 
ATOM      6  C   UNL     1       4.218  -1.260   2.518  0.00  0.00    +0.032 A 
ATOM      7  C   UNL     1       5.331  -1.060   1.707  0.00  0.00    +0.012 A 
ATOM      8  C   UNL     1       6.578  -1.337   2.195  0.00  0.00    +0.001 A 
ATOM      9  C   UNL     1       6.739  -1.817   3.489  0.00  0.00    +0.002 A 
ATOM     10  C   UNL     1       5.658  -2.021   4.301  0.00  0.00    +0.028 A 
ATOM     11  C   UNL     1       4.378  -1.746   3.830  0.00  0.00    +0.066 A 
ATOM     12  N   UNL     1       3.117  -1.834   4.359  0.00  0.00    -0.276 N 
ATOM     13  H   UNL     1       2.920  -2.141   5.257  0.00  0.00    +0.189 HD
ATOM     14  N   UNL     1       2.230  -1.451   3.513  0.00  0.00    -0.168 NA
ENDBRANCH   2   5
BRANCH   1  16
ATOM     15  C   UNL     1      -0.019   1.526   0.010  0.00  0.00    +0.028 C 
ATOM     16  C   UNL     1       0.002  -0.004   0.002  0.00  0.00    +0.071 C 
BRANCH  16  17
ATOM     17  C   UNL     1      -1.433  -0.534   0.013  0.00  0.00    +0.026 C 
BRANCH  17  18
ATOM     18  C   UNL     1      -1.416  -2.058  -0.121  0.00  0.00    +0.037 C 
BRANCH  18  19
ATOM     19  C   UNL     1      -2.829  -2.579  -0.111  0.00  0.00    -0.047 A 
ATOM     20  C   UNL     1      -3.432  -2.917   1.087  0.00  0.00    +0.005 A 
ATOM     21  C   UNL     1      -4.729  -3.395   1.097  0.00  0.00    +0.015 A 
ATOM     22  C   UNL     1      -5.424  -3.535  -0.091  0.00  0.00    +0.018 A 
ATOM     23  C   UNL     1      -4.820  -3.197  -1.288  0.00  0.00    +0.015 A 
ATOM     24  C   UNL     1      -3.525  -2.714  -1.297  0.00  0.00    +0.005 A 
ATOM     25 BR   UNL     1      -7.198  -4.190  -0.077  0.00  0.00    -0.050 Br
ENDBRANCH  18  19
ENDBRANCH  17  18
ENDBRANCH  16  17
ENDBRANCH   1  16
TORSDOF 5
