REMARK  Name = ZINC38650828
REMARK  14 active torsions:
REMARK  status: ('A' for Active; 'I' for Inactive)
REMARK    1  A    between atoms: C_1  and  C_2
REMARK    2  A    between atoms: C_2  and  C_3
REMARK    3  A    between atoms: C_3  and  C_4
REMARK    4  A    between atoms: C_4  and  O_5
REMARK    5  A    between atoms: O_5  and  C_6
REMARK    6  A    between atoms: C_9  and  C_12
REMARK    7  A    between atoms: C_17  and  O_26
REMARK    8  A    between atoms: C_21  and  N_25
REMARK    9  A    between atoms: C_22  and  C_23
REMARK   10  A    between atoms: O_26  and  C_27
REMARK   11  A    between atoms: C_27  and  C_29
REMARK   12  A    between atoms: C_29  and  C_31
REMARK   13  A    between atoms: C_29  and  O_32
REMARK   14  A    between atoms: O_32  and  C_33
REMARK                            x       y       z     vdW  Elec       q    Type
REMARK                         _______ _______ _______ _____ _____    ______ ____
ROOT
ATOM      1  C   UNL     1       1.791  -8.208  -3.002  0.00  0.00    +0.098 C 
ATOM      2  C   UNL     1       1.125  -8.579  -4.300  0.00  0.00    +0.008 A 
ATOM      3  C   UNL     1      -0.257  -8.624  -4.367  0.00  0.00    +0.012 A 
ATOM      4  C   UNL     1      -0.885  -8.963  -5.549  0.00  0.00    +0.047 A 
ATOM      5  C   UNL     1      -0.131  -9.259  -6.676  0.00  0.00    +0.135 A 
ATOM      6  C   UNL     1       1.252  -9.216  -6.612  0.00  0.00    +0.093 A 
ATOM      7  C   UNL     1       1.883  -8.874  -5.422  0.00  0.00    +0.138 A 
ATOM      8  O   UNL     1       3.238  -8.836  -5.376  0.00  0.00    -0.441 OA
ATOM      9  C   UNL     1       3.869  -8.896  -4.192  0.00  0.00    +0.199 C 
ATOM     10  C   UNL     1       3.239  -8.608  -3.032  0.00  0.00    +0.098 C 
ENDROOT
BRANCH   1  14
ATOM     11  C   UNL     1       1.503  -3.984  -2.420  0.00  0.00    +0.121 A 
ATOM     12  C   UNL     1       0.938  -4.853  -1.497  0.00  0.00    +0.046 A 
ATOM     13  C   UNL     1       1.032  -6.218  -1.688  0.00  0.00    +0.008 A 
ATOM     14  C   UNL     1       1.690  -6.718  -2.797  0.00  0.00    -0.034 A 
ATOM     15  C   UNL     1       2.254  -5.855  -3.717  0.00  0.00    +0.008 A 
ATOM     16  C   UNL     1       2.157  -4.489  -3.534  0.00  0.00    +0.046 A 
BRANCH  11  17
ATOM     17  O   UNL     1       1.411  -2.641  -2.234  0.00  0.00    -0.492 OA
BRANCH  17  18
ATOM     18  C   UNL     1       0.724  -2.193  -1.064  0.00  0.00    +0.229 C 
BRANCH  18  19
ATOM     19  C   UNL     1       0.723  -0.663  -1.028  0.00  0.00    +0.041 C 
BRANCH  19  21
ATOM     20  C   UNL     1      -0.014   1.346   0.261  0.00  0.00    +0.004 C 
ATOM     21  C   UNL     1      -0.013  -0.183   0.225  0.00  0.00    -0.000 C 
ENDBRANCH  19  21
ENDBRANCH  18  19
ENDBRANCH  17  18
ENDBRANCH  11  17
ENDBRANCH   1  14
BRANCH   9  22
ATOM     22  N   UNL     1       5.193  -9.258  -4.161  0.00  0.00    -0.328 N 
ATOM     23  H   UNL     1       5.659  -9.466  -4.986  0.00  0.00    +0.145 HD
ATOM     24  H   UNL     1       5.663  -9.305  -3.313  0.00  0.00    +0.145 HD
ENDBRANCH   9  22
BRANCH  10  25
ATOM     25  C   UNL     1       3.971  -8.689  -1.803  0.00  0.00    +0.101 C 
ATOM     26  N   UNL     1       4.551  -8.753  -0.829  0.00  0.00    -0.191 NA
ENDBRANCH  10  25
BRANCH   5  27
ATOM     27  O   UNL     1      -0.748  -9.593  -7.840  0.00  0.00    -0.423 OA
BRANCH  27  28
ATOM     28  C   UNL     1      -0.584 -10.842  -8.305  0.00  0.00    +0.353 C 
ATOM     29  O   UNL     1       0.018 -11.658  -7.646  0.00  0.00    -0.246 OA
BRANCH  28  30
ATOM     30  C   UNL     1      -1.150 -11.227  -9.647  0.00  0.00    +0.279 C 
ATOM     31  C   UNL     1      -2.677 -11.153  -9.597  0.00  0.00    +0.064 C 
BRANCH  30  32
ATOM     32  O   UNL     1      -0.748 -12.560  -9.970  0.00  0.00    -0.475 OA
BRANCH  32  33
ATOM     33  C   UNL     1      -0.527 -12.838 -11.282  0.00  0.00    +0.157 A 
ATOM     34  C   UNL     1      -0.819 -11.890 -12.251  0.00  0.00    +0.048 A 
ATOM     35  C   UNL     1      -0.594 -12.175 -13.585  0.00  0.00    +0.004 A 
ATOM     36  C   UNL     1      -0.078 -13.403 -13.954  0.00  0.00    +0.003 A 
ATOM     37  C   UNL     1       0.214 -14.351 -12.991  0.00  0.00    +0.042 A 
ATOM     38  C   UNL     1      -0.003 -14.069 -11.654  0.00  0.00    +0.165 A 
ATOM     39  F   UNL     1       0.288 -14.993 -10.712  0.00  0.00    -0.202 F 
ENDBRANCH  32  33
ENDBRANCH  30  32
ENDBRANCH  28  30
ENDBRANCH  27  28
ENDBRANCH   5  27
TORSDOF 12
