REMARK  Name = ZINC06999770
REMARK  10 active torsions:
REMARK  status: ('A' for Active; 'I' for Inactive)
REMARK    1  A    between atoms: C_1  and  C_2
REMARK    2  A    between atoms: C_2  and  C_3
REMARK    3  A    between atoms: C_3  and  C_4
REMARK    4  A    between atoms: C_7  and  C_10
REMARK    5  A    between atoms: C_10  and  C_12
REMARK    6  A    between atoms: C_10  and  N_56
REMARK    7  A    between atoms: C_12  and  C_13
REMARK    8  A    between atoms: C_12  and  C_14
REMARK    9  A    between atoms: C_15  and  C_16
REMARK   10  A    between atoms: C_15  and  N_56
REMARK                            x       y       z     vdW  Elec       q    Type
REMARK                         _______ _______ _______ _____ _____    ______ ____
ROOT
ATOM      1  N   UNL     1      -1.779   3.645   5.715  0.00  0.00    +0.388 N 
ATOM      2  H   UNL     1      -2.286   4.374   6.228  0.00  0.00    -0.084 HD
ATOM      3  H   UNL     1      -0.997   4.069   5.201  0.00  0.00    -0.084 HD
ENDROOT
BRANCH   1   4
ATOM      4  C   UNL     1      -2.695   2.996   4.758  0.00  0.00    -0.038 C 
BRANCH   4   8
ATOM      5  C   UNL     1      -0.433   1.181   1.621  0.00  0.00    -0.047 A 
ATOM      6  C   UNL     1      -0.054   2.412   2.124  0.00  0.00    +0.004 A 
ATOM      7  C   UNL     1      -0.789   3.001   3.136  0.00  0.00    +0.002 A 
ATOM      8  C   UNL     1      -1.897   2.356   3.651  0.00  0.00    -0.061 A 
ATOM      9  C   UNL     1      -2.274   1.123   3.152  0.00  0.00    +0.002 A 
ATOM     10  C   UNL     1      -1.542   0.535   2.137  0.00  0.00    +0.004 A 
BRANCH   5  11
ATOM     11  C   UNL     1       0.364   0.540   0.515  0.00  0.00    +0.035 C 
BRANCH  11  13
ATOM     12  C   UNL     1       0.609   0.325  -1.962  0.00  0.00    +0.004 C 
ATOM     13  C   UNL     1      -0.201   0.975  -0.839  0.00  0.00    +0.001 C 
ENDBRANCH  11  13
ENDBRANCH   5  11
ENDBRANCH   4   8
BRANCH   4  14
ATOM     14  C   UNL     1      -3.632   4.051   4.166  0.00  0.00    -0.027 C 
ATOM     15  C   UNL     1      -4.648   3.372   3.246  0.00  0.00    +0.006 C 
ATOM     16  C   UNL     1      -4.369   4.771   5.297  0.00  0.00    +0.006 C 
ENDBRANCH   4  14
ENDBRANCH   1   4
BRANCH   1  17
ATOM     17  C   UNL     1      -1.252   2.653   6.671  0.00  0.00    -0.006 C 
BRANCH  17  18
ATOM     18  C   UNL     1      -0.409   3.360   7.702  0.00  0.00    +0.094 A 
ATOM     19  N   UNL     1       0.181   2.638   8.688  0.00  0.00    -0.312 N 
ATOM     20  H   UNL     1       0.049   1.647   8.717  0.00  0.00    +0.170 HD
ATOM     21  C   UNL     1       0.942   3.230   9.629  0.00  0.00    +0.260 A 
ATOM     22  O   UNL     1       1.466   2.570  10.509  0.00  0.00    -0.267 OA
ATOM     23  C   UNL     1       1.124   4.650   9.575  0.00  0.00    +0.075 A 
ATOM     24  C   UNL     1       1.903   5.499  10.489  0.00  0.00    -0.023 A 
ATOM     25  C   UNL     1       1.922   6.817  10.226  0.00  0.00    -0.004 A 
ATOM     26  S   UNL     1       0.917   7.009   8.771  0.00  0.00    -0.073 S 
ATOM     27  C   UNL     1       0.476   5.310   8.523  0.00  0.00    +0.116 A 
ATOM     28  N   UNL     1      -0.257   4.656   7.625  0.00  0.00    -0.229 NA
ATOM     29  C   UNL     1       2.753   7.583  11.220  0.00  0.00    +0.043 C 
ATOM     30  C   UNL     1       3.618   6.507  11.913  0.00  0.00    +0.010 C 
ATOM     31  C   UNL     1       2.747   5.247  11.741  0.00  0.00    +0.037 C 
ENDBRANCH  17  18
ENDBRANCH   1  17
TORSDOF 7
