REMARK  Name = ZINC40147793
REMARK  13 active torsions:
REMARK  status: ('A' for Active; 'I' for Inactive)
REMARK    1  A    between atoms: C_1  and  C_2
REMARK    2  A    between atoms: C_2  and  C_3
REMARK    3  A    between atoms: C_3  and  C_4
REMARK    4  A    between atoms: C_4  and  O_5
REMARK    5  A    between atoms: O_5  and  C_6
REMARK    6  A    between atoms: C_9  and  C_14
REMARK    7  A    between atoms: C_11  and  O_12
REMARK    8  A    between atoms: O_12  and  C_13
REMARK    9  A    between atoms: N_15  and  N_16
REMARK   10  A    between atoms: N_18  and  C_33
REMARK   11  A    between atoms: C_21  and  C_24
REMARK   12  A    between atoms: C_24  and  C_25
REMARK   13  A    between atoms: C_33  and  C_34
REMARK                            x       y       z     vdW  Elec       q    Type
REMARK                         _______ _______ _______ _____ _____    ______ ____
ROOT
ATOM      1  N   UNL     1       1.439 -10.119  -2.360  0.00  0.00    -0.127 NA
ATOM      2  C   UNL     1       0.932 -10.930  -1.456  0.00  0.00    +0.186 C 
ATOM      3  N   UNL     1       0.947 -12.309  -1.445  0.00  0.00    -0.245 N 
ATOM      4  C   UNL     1       0.398 -13.017  -0.473  0.00  0.00    +0.235 C 
ATOM      5  O   UNL     1       0.415 -14.229  -0.470  0.00  0.00    -0.274 OA
ATOM      6  C   UNL     1      -0.255 -12.215   0.642  0.00  0.00    +0.145 C 
ATOM      7  S   UNL     1       0.069 -10.503   0.049  0.00  0.00    -0.075 S 
ENDROOT
BRANCH   1   9
ATOM      8  C   UNL     1       1.843  -8.037  -3.106  0.00  0.00    +0.143 C 
ATOM      9  N   UNL     1       1.340  -8.841  -2.209  0.00  0.00    -0.155 NA
BRANCH   8  13
ATOM     10  C   UNL     1       1.514  -3.834  -2.603  0.00  0.00    +0.162 A 
ATOM     11  C   UNL     1       0.978  -4.690  -1.651  0.00  0.00    +0.050 A 
ATOM     12  C   UNL     1       1.083  -6.055  -1.810  0.00  0.00    +0.013 A 
ATOM     13  C   UNL     1       1.730  -6.580  -2.934  0.00  0.00    -0.002 A 
ATOM     14  C   UNL     1       2.268  -5.717  -3.893  0.00  0.00    +0.059 A 
ATOM     15  C   UNL     1       2.154  -4.349  -3.728  0.00  0.00    +0.162 A 
BRANCH  15  16
ATOM     16  O   UNL     1       2.673  -3.506  -4.661  0.00  0.00    -0.491 OA
ATOM     17  C   UNL     1       3.316  -4.104  -5.789  0.00  0.00    +0.277 C 
ENDBRANCH  15  16
BRANCH  10  18
ATOM     18  O   UNL     1       1.408  -2.488  -2.441  0.00  0.00    -0.488 OA
BRANCH  18  19
ATOM     19  C   UNL     1       0.739  -2.027  -1.265  0.00  0.00    +0.229 C 
BRANCH  19  20
ATOM     20  C   UNL     1       0.718  -0.497  -1.257  0.00  0.00    +0.041 C 
BRANCH  20  22
ATOM     21  C   UNL     1      -0.019   1.526   0.010  0.00  0.00    +0.004 C 
ATOM     22  C   UNL     1       0.002  -0.004   0.002  0.00  0.00    -0.000 C 
ENDBRANCH  20  22
ENDBRANCH  19  20
ENDBRANCH  18  19
ENDBRANCH  10  18
ENDBRANCH   8  13
ENDBRANCH   1   9
BRANCH   6  23
ATOM     23  C   UNL     1       0.431 -12.472   1.985  0.00  0.00    +0.060 C 
BRANCH  23  24
ATOM     24  C   UNL     1      -0.320 -11.757   3.078  0.00  0.00    -0.027 A 
ATOM     25  C   UNL     1       0.080 -10.497   3.482  0.00  0.00    +0.006 A 
ATOM     26  C   UNL     1      -0.609  -9.841   4.485  0.00  0.00    +0.020 A 
ATOM     27  C   UNL     1      -1.700 -10.444   5.084  0.00  0.00    +0.042 A 
ATOM     28  C   UNL     1      -2.102 -11.704   4.680  0.00  0.00    +0.040 A 
ATOM     29  C   UNL     1      -1.414 -12.359   3.673  0.00  0.00    +0.046 A 
ATOM     30 CL   UNL     1      -1.921 -13.938   3.161  0.00  0.00    -0.083 Cl
ATOM     31 CL   UNL     1      -2.565  -9.620   6.344  0.00  0.00    -0.083 Cl
ENDBRANCH  23  24
ENDBRANCH   6  23
BRANCH   3  32
ATOM     32  C   UNL     1       1.594 -13.016  -2.553  0.00  0.00    +0.142 C 
BRANCH  32  33
ATOM     33  C   UNL     1       3.048 -13.240  -2.224  0.00  0.00    -0.015 C 
ATOM     34  C   UNL     1       3.548 -14.450  -2.259  0.00  0.00    +0.005 C 
ENDBRANCH  32  33
ENDBRANCH   3  32
TORSDOF 11
