REMARK  Name = ZINC09052674
REMARK  7 active torsions:
REMARK  status: ('A' for Active; 'I' for Inactive)
REMARK    1  A    between atoms: C_1  and  C_2
REMARK    2  A    between atoms: C_2  and  C_3
REMARK    3  A    between atoms: C_3  and  C_4
REMARK    4  A    between atoms: C_7  and  S_10
REMARK    5  A    between atoms: S_10  and  N_13
REMARK    6  A    between atoms: C_17  and  C_19
REMARK    7  A    between atoms: C_25  and  N_51
REMARK                            x       y       z     vdW  Elec       q    Type
REMARK                         _______ _______ _______ _____ _____    ______ ____
ROOT
ATOM      1  N   UNL     1       0.563   0.445   7.027  0.00  0.00    -0.173 NA
ATOM      2  C   UNL     1       0.929   1.784   7.511  0.00  0.00    +0.091 C 
ATOM      3  C   UNL     1       2.002   1.640   8.590  0.00  0.00    -0.062 C 
ATOM      4  C   UNL     1       1.319  -0.635   9.078  0.00  0.00    -0.054 C 
ATOM      5  C   UNL     1       0.212  -0.583   8.019  0.00  0.00    +0.093 C 
ATOM      6  C   UNL     1       2.461   0.676  10.763  0.00  0.00    -0.096 C 
ATOM      7  N   UNL     1       1.505   0.722   9.637  0.00  0.00    +0.380 N 
ATOM      8  H   UNL     1       0.601   1.067   9.981  0.00  0.00    -0.082 HD
ENDROOT
BRANCH   5   9
ATOM      9  C   UNL     1       0.097  -1.923   7.340  0.00  0.00    -0.030 A 
ATOM     10  C   UNL     1       1.223  -2.703   7.155  0.00  0.00    +0.005 A 
ATOM     11  C   UNL     1       1.117  -3.935   6.537  0.00  0.00    +0.000 A 
ATOM     12  C   UNL     1      -0.114  -4.383   6.095  0.00  0.00    +0.000 A 
ATOM     13  C   UNL     1      -1.240  -3.601   6.277  0.00  0.00    +0.000 A 
ATOM     14  C   UNL     1      -1.134  -2.371   6.899  0.00  0.00    +0.005 A 
ENDBRANCH   5   9
BRANCH   1  15
ATOM     15  S   UNL     1       0.553   0.100   5.407  0.00  0.00    +0.061 S 
ATOM     16  O   UNL     1       0.658  -1.312   5.291  0.00  0.00    -0.153 OA
ATOM     17  O   UNL     1       1.483   0.985   4.798  0.00  0.00    -0.153 OA
BRANCH  15  21
ATOM     18  C   UNL     1      -3.535   1.228   3.823  0.00  0.00    -0.047 A 
ATOM     19  C   UNL     1      -3.308  -0.048   4.306  0.00  0.00    +0.005 A 
ATOM     20  C   UNL     1      -2.059  -0.393   4.786  0.00  0.00    +0.029 A 
ATOM     21  C   UNL     1      -1.038   0.539   4.791  0.00  0.00    +0.106 A 
ATOM     22  C   UNL     1      -1.266   1.816   4.312  0.00  0.00    +0.029 A 
ATOM     23  C   UNL     1      -2.514   2.160   3.828  0.00  0.00    +0.005 A 
BRANCH  18  24
ATOM     24  C   UNL     1      -4.896   1.603   3.296  0.00  0.00    +0.035 C 
BRANCH  24  26
ATOM     25  C   UNL     1      -6.343   1.687   1.262  0.00  0.00    +0.004 C 
ATOM     26  C   UNL     1      -4.962   1.306   1.797  0.00  0.00    +0.001 C 
ENDBRANCH  24  26
ENDBRANCH  18  24
ENDBRANCH  15  21
ENDBRANCH   1  15
TORSDOF 5
