REMARK  Name = ZINC39628311
REMARK  11 active torsions:
REMARK  status: ('A' for Active; 'I' for Inactive)
REMARK    1  A    between atoms: C_1  and  C_2
REMARK    2  A    between atoms: N_8  and  C_9
REMARK    3  A    between atoms: C_9  and  C_10
REMARK    4  A    between atoms: C_10  and  C_11
REMARK    5  A    between atoms: C_11  and  N_12
REMARK    6  A    between atoms: C_13  and  C_15
REMARK    7  A    between atoms: C_26  and  C_28
REMARK    8  A    between atoms: C_30  and  O_36
REMARK    9  A    between atoms: C_32  and  O_34
REMARK   10  A    between atoms: O_34  and  C_35
REMARK   11  A    between atoms: O_36  and  C_37
REMARK                            x       y       z     vdW  Elec       q    Type
REMARK                         _______ _______ _______ _____ _____    ______ ____
ROOT
ATOM      1  C   UNL     1       0.783  -0.523   8.361  0.00  0.00    +0.100 C 
ATOM      2  C   UNL     1       1.041  -2.011   8.686  0.00  0.00    +0.121 C 
ATOM      3  N   UNL     1       1.028  -2.079  10.167  0.00  0.00    -0.296 N 
ATOM      4  C   UNL     1      -0.065  -1.161  10.568  0.00  0.00    +0.115 C 
ATOM      5  C   UNL     1       0.056   0.032   9.598  0.00  0.00    -0.004 C 
ATOM      6  C   UNL     1      -1.330   0.540   9.214  0.00  0.00    -0.010 C 
ATOM      7  C   UNL     1      -2.010   1.139  10.448  0.00  0.00    -0.082 C 
ATOM      8  N   UNL     1      -1.191   2.239  10.975  0.00  0.00    +0.379 N 
ATOM      9  C   UNL     1       0.106   1.724  11.429  0.00  0.00    -0.082 C 
ATOM     10  C   UNL     1       0.875   1.150  10.236  0.00  0.00    -0.010 C 
ATOM     11  C   UNL     1       1.829  -2.809  10.967  0.00  0.00    +0.247 C 
ATOM     12  O   UNL     1       2.768  -3.419  10.494  0.00  0.00    -0.270 OA
ATOM     13  H   UNL     1      -1.044   2.924  10.249  0.00  0.00    -0.086 HD
ATOM     14  H   UNL     1      -1.670   2.671  11.750  0.00  0.00    -0.086 HD
ENDROOT
BRANCH  11  15
ATOM     15  C   UNL     1       1.566  -2.869  12.421  0.00  0.00    +0.044 A 
ATOM     16  C   UNL     1       0.299  -2.558  12.916  0.00  0.00    +0.059 A 
ATOM     17  C   UNL     1       0.057  -2.616  14.278  0.00  0.00    +0.124 A 
ATOM     18  C   UNL     1       1.072  -2.982  15.150  0.00  0.00    +0.091 A 
ATOM     19  C   UNL     1       2.333  -3.292  14.663  0.00  0.00    +0.124 A 
ATOM     20  C   UNL     1       2.582  -3.242  13.301  0.00  0.00    +0.059 A 
BRANCH  19  21
ATOM     21  O   UNL     1       3.324  -3.649  15.521  0.00  0.00    -0.495 OA
ATOM     22  C   UNL     1       2.995  -3.685  16.912  0.00  0.00    +0.277 C 
ENDBRANCH  19  21
BRANCH  17  23
ATOM     23  O   UNL     1      -1.177  -2.314  14.761  0.00  0.00    -0.495 OA
ATOM     24  C   UNL     1      -1.357  -2.394  16.177  0.00  0.00    +0.277 C 
ENDBRANCH  17  23
ENDBRANCH  11  15
BRANCH   1  26
ATOM     25  N   UNL     1       0.032   0.676   6.332  0.00  0.00    -0.315 N 
ATOM     26  C   UNL     1      -0.091  -0.396   7.140  0.00  0.00    +0.218 C 
ATOM     27  O   UNL     1      -0.903  -1.259   6.883  0.00  0.00    -0.275 OA
ATOM     28  H   UNL     1       0.681   1.366   6.537  0.00  0.00    +0.149 HD
BRANCH  25  29
ATOM     29  C   UNL     1      -0.817   0.799   5.144  0.00  0.00    +0.102 C 
BRANCH  29  30
ATOM     30  C   UNL     1      -0.479   2.097   4.408  0.00  0.00    +0.000 C 
BRANCH  30  31
ATOM     31  C   UNL     1      -1.366   2.225   3.168  0.00  0.00    -0.077 C 
BRANCH  31  38
ATOM     32  C   UNL     1      -3.409   3.644   1.865  0.00  0.00    -0.013 C 
ATOM     33  C   UNL     1      -1.972   3.653   1.340  0.00  0.00    -0.072 C 
ATOM     34  C   UNL     1      -1.690   4.990   0.651  0.00  0.00    -0.016 C 
ATOM     35  C   UNL     1      -0.251   4.994   0.127  0.00  0.00    -0.003 C 
ATOM     36  C   UNL     1       0.707   4.729   1.293  0.00  0.00    -0.019 C 
ATOM     37  C   UNL     1       0.336   3.402   1.959  0.00  0.00    -0.078 C 
ATOM     38  N   UNL     1      -1.042   3.471   2.461  0.00  0.00    +0.381 N 
ATOM     39  H   UNL     1      -1.128   4.249   3.098  0.00  0.00    -0.081 HD
ENDBRANCH  31  38
ENDBRANCH  30  31
ENDBRANCH  29  30
ENDBRANCH  25  29
ENDBRANCH   1  26
TORSDOF 8
