REMARK  Name = ZINC39700736
REMARK  8 active torsions:
REMARK  status: ('A' for Active; 'I' for Inactive)
REMARK    1  A    between atoms: C_1  and  O_2
REMARK    2  A    between atoms: O_2  and  C_3
REMARK    3  A    between atoms: C_5  and  C_19
REMARK    4  A    between atoms: C_8  and  O_9
REMARK    5  A    between atoms: O_9  and  C_10
REMARK    6  A    between atoms: C_10  and  C_11
REMARK    7  A    between atoms: C_20  and  C_21
REMARK    8  A    between atoms: C_20  and  C_23
REMARK                            x       y       z     vdW  Elec       q    Type
REMARK                         _______ _______ _______ _____ _____    ______ ____
ROOT
ATOM      1  C   UNL     1      -1.322  -0.993   0.400  0.00  0.00    +0.162 A 
ATOM      2  C   UNL     1      -2.400  -0.155   0.192  0.00  0.00    +0.057 A 
ATOM      3  C   UNL     1      -3.701  -0.666   0.258  0.00  0.00    -0.020 A 
ATOM      4  C   UNL     1      -3.903  -2.022   0.534  0.00  0.00    +0.012 A 
ATOM      5  C   UNL     1      -2.822  -2.851   0.741  0.00  0.00    +0.050 A 
ATOM      6  C   UNL     1      -1.531  -2.345   0.670  0.00  0.00    +0.162 A 
ENDROOT
BRANCH   1   8
ATOM      7  C   UNL     1       0.085   0.893   0.055  0.00  0.00    +0.277 C 
ATOM      8  O   UNL     1      -0.056  -0.501   0.336  0.00  0.00    -0.491 OA
ENDBRANCH   1   8
BRANCH   3   9
ATOM      9  C   UNL     1      -4.853   0.222   0.038  0.00  0.00    +0.026 C 
ATOM     10  C   UNL     1      -5.937  -0.232  -0.626  0.00  0.00    +0.072 C 
BRANCH  10  11
ATOM     11  C   UNL     1      -7.179   0.617  -0.710  0.00  0.00    +0.216 C 
ATOM     12  N   UNL     1      -8.329  -0.117  -0.166  0.00  0.00    -0.359 N 
ATOM     13  C   UNL     1      -9.202  -0.240  -1.124  0.00  0.00    +0.060 A 
ATOM     14  C   UNL     1     -10.530  -0.866  -1.192  0.00  0.00    +0.027 A 
ATOM     15  C   UNL     1     -11.220  -0.837  -2.349  0.00  0.00    +0.002 A 
ATOM     16  C   UNL     1     -10.723  -0.226  -3.514  0.00  0.00    +0.002 A 
ATOM     17  C   UNL     1      -9.518   0.376  -3.560  0.00  0.00    +0.027 A 
ATOM     18  C   UNL     1      -8.676   0.408  -2.357  0.00  0.00    +0.060 A 
ATOM     19  N   UNL     1      -7.498   0.906  -2.114  0.00  0.00    -0.359 N 
ATOM     20  H   UNL     1      -8.421  -0.449   0.740  0.00  0.00    +0.162 HD
ATOM     21  H   UNL     1      -6.935   1.381  -2.744  0.00  0.00    +0.162 HD
ENDBRANCH  10  11
BRANCH  10  22
ATOM     22  C   UNL     1      -5.907  -1.521  -1.250  0.00  0.00    +0.099 C 
ATOM     23  N   UNL     1      -5.884  -2.543  -1.744  0.00  0.00    -0.191 NA
ENDBRANCH  10  22
ENDBRANCH   3   9
BRANCH   6  24
ATOM     24  O   UNL     1      -0.469  -3.168   0.869  0.00  0.00    -0.484 OA
BRANCH  24  25
ATOM     25  C   UNL     1      -0.755  -4.542   1.141  0.00  0.00    +0.266 C 
BRANCH  25  26
ATOM     26  C   UNL     1       0.536  -5.295   1.332  0.00  0.00    +0.008 A 
ATOM     27  C   UNL     1       1.745  -4.630   1.238  0.00  0.00    +0.010 A 
ATOM     28  C   UNL     1       2.929  -5.321   1.414  0.00  0.00    +0.020 A 
ATOM     29  C   UNL     1       2.906  -6.678   1.685  0.00  0.00    +0.042 A 
ATOM     30  C   UNL     1       1.697  -7.343   1.780  0.00  0.00    +0.040 A 
ATOM     31  C   UNL     1       0.512  -6.651   1.608  0.00  0.00    +0.049 A 
ATOM     32 CL   UNL     1      -1.006  -7.484   1.734  0.00  0.00    -0.083 Cl
ATOM     33 CL   UNL     1       4.394  -7.545   1.905  0.00  0.00    -0.083 Cl
ENDBRANCH  25  26
ENDBRANCH  24  25
ENDBRANCH   6  24
TORSDOF 7
