REMARK  Name = ZINC04083385
REMARK  8 active torsions:
REMARK  status: ('A' for Active; 'I' for Inactive)
REMARK    1  A    between atoms: C_2  and  C_3
REMARK    2  A    between atoms: C_3  and  N_4
REMARK    3  A    between atoms: N_4  and  C_5
REMARK    4  A    between atoms: C_5  and  N_7
REMARK    5  A    between atoms: N_7  and  N_8
REMARK    6  A    between atoms: C_9  and  C_10
REMARK    7  A    between atoms: N_12  and  C_19
REMARK    8  A    between atoms: C_19  and  C_20
REMARK                            x       y       z     vdW  Elec       q    Type
REMARK                         _______ _______ _______ _____ _____    ______ ____
ROOT
ATOM      1  C   UNL     1       0.169  -3.432  -3.271  0.00  0.00    +0.020 A 
ATOM      2  C   UNL     1      -0.068  -3.039  -1.990  0.00  0.00    +0.096 A 
ATOM      3  N   UNL     1       1.103  -2.668  -1.399  0.00  0.00    -0.342 N 
ATOM      4  C   UNL     1       2.152  -2.819  -2.281  0.00  0.00    +0.050 A 
ATOM      5  C   UNL     1       1.621  -3.302  -3.489  0.00  0.00    +0.009 A 
ATOM      6  C   UNL     1       2.461  -3.550  -4.572  0.00  0.00    +0.010 A 
ATOM      7  C   UNL     1       3.814  -3.319  -4.451  0.00  0.00    +0.001 A 
ATOM      8  C   UNL     1       4.340  -2.842  -3.259  0.00  0.00    +0.002 A 
ATOM      9  C   UNL     1       3.521  -2.593  -2.180  0.00  0.00    +0.026 A 
ENDROOT
BRANCH   1  11
ATOM     10  N   UNL     1      -0.455  -4.252  -5.439  0.00  0.00    -0.188 NA
ATOM     11  C   UNL     1      -0.829  -3.901  -4.246  0.00  0.00    +0.140 C 
BRANCH  10  12
ATOM     12  N   UNL     1      -1.405  -4.699  -6.368  0.00  0.00    -0.218 N 
ATOM     13  H   UNL     1      -2.341  -4.747  -6.119  0.00  0.00    +0.176 HD
BRANCH  12  14
ATOM     14  C   UNL     1      -1.017  -5.063  -7.606  0.00  0.00    +0.150 C 
ATOM     15  S   UNL     1      -2.177  -5.609  -8.741  0.00  0.00    -0.017 S 
BRANCH  14  16
ATOM     16  N   UNL     1       0.284  -4.997  -7.952  0.00  0.00    -0.322 N 
ATOM     17  H   UNL     1       0.942  -4.687  -7.309  0.00  0.00    +0.148 HD
BRANCH  16  18
ATOM     18  C   UNL     1       0.706  -5.392  -9.298  0.00  0.00    +0.130 C 
BRANCH  18  20
ATOM     19  C   UNL     1       2.940  -6.238  -9.802  0.00  0.00    +0.005 C 
ATOM     20  C   UNL     1       2.198  -5.226  -9.426  0.00  0.00    -0.016 C 
ENDBRANCH  18  20
ENDBRANCH  16  18
ENDBRANCH  14  16
ENDBRANCH  12  14
ENDBRANCH  10  12
ENDBRANCH   1  11
BRANCH   3  21
ATOM     21  C   UNL     1       1.230  -2.186  -0.021  0.00  0.00    +0.158 C 
BRANCH  21  22
ATOM     22  C   UNL     1       1.210  -0.679  -0.013  0.00  0.00    -0.009 A 
ATOM     23  C   UNL     1       2.397   0.028  -0.021  0.00  0.00    +0.008 A 
ATOM     24  C   UNL     1       2.379   1.410  -0.014  0.00  0.00    +0.020 A 
ATOM     25  C   UNL     1       1.172   2.087   0.002  0.00  0.00    +0.042 A 
ATOM     26  C   UNL     1      -0.017   1.379   0.010  0.00  0.00    +0.040 A 
ATOM     27  C   UNL     1       0.002  -0.004   0.002  0.00  0.00    +0.047 A 
ATOM     28 CL   UNL     1      -1.489  -0.893   0.011  0.00  0.00    -0.083 Cl
ATOM     29 CL   UNL     1       1.149   3.822   0.011  0.00  0.00    -0.083 Cl
ENDBRANCH  21  22
ENDBRANCH   3  21
TORSDOF 8
