REMARK  Name = ZINC39355844
REMARK  9 active torsions:
REMARK  status: ('A' for Active; 'I' for Inactive)
REMARK    1  A    between atoms: C_1  and  C_2
REMARK    2  A    between atoms: C_6  and  C_7
REMARK    3  A    between atoms: C_7  and  C_9
REMARK    4  A    between atoms: C_7  and  C_28
REMARK    5  A    between atoms: C_12  and  O_16
REMARK    6  A    between atoms: O_16  and  C_17
REMARK    7  A    between atoms: C_17  and  C_18
REMARK    8  A    between atoms: C_29  and  C_35
REMARK    9  A    between atoms: C_32  and  O_34
REMARK                            x       y       z     vdW  Elec       q    Type
REMARK                         _______ _______ _______ _____ _____    ______ ____
ROOT
ATOM      1  C   UNL     1       1.211  -0.977   3.281  0.00  0.00    -0.034 A 
ATOM      2  C   UNL     1       1.390  -2.349   3.276  0.00  0.00    +0.008 A 
ATOM      3  C   UNL     1       2.470  -2.909   3.931  0.00  0.00    +0.047 A 
ATOM      4  C   UNL     1       3.375  -2.094   4.595  0.00  0.00    +0.135 A 
ATOM      5  C   UNL     1       3.194  -0.718   4.598  0.00  0.00    +0.060 A 
ATOM      6  C   UNL     1       2.115  -0.163   3.937  0.00  0.00    +0.023 A 
ATOM      7 BR   UNL     1       4.426   0.396   5.503  0.00  0.00    -0.047 Br
ENDROOT
BRANCH   1   8
ATOM      8  C   UNL     1       0.032  -0.370   2.566  0.00  0.00    +0.088 C 
BRANCH   8  14
ATOM      9  C   UNL     1       2.496  -1.073   0.703  0.00  0.00    +0.068 C 
ATOM     10  C   UNL     1       1.042  -1.232   0.342  0.00  0.00    +0.068 A 
ATOM     11  N   UNL     1       0.579  -1.691  -0.792  0.00  0.00    -0.176 NA
ATOM     12  N   UNL     1      -0.820  -1.682  -0.733  0.00  0.00    -0.243 N 
ATOM     13  C   UNL     1      -1.183  -1.202   0.477  0.00  0.00    +0.271 A 
ATOM     14  C   UNL     1      -0.045  -0.921   1.165  0.00  0.00    +0.052 A 
ATOM     15  O   UNL     1      -2.453  -1.036   0.926  0.00  0.00    -0.266 OA
ATOM     16  H   UNL     1      -1.423  -1.969  -1.437  0.00  0.00    +0.192 HD
ENDBRANCH   8  14
BRANCH   8  17
ATOM     17  C   UNL     1      -1.235  -0.707   3.309  0.00  0.00    +0.017 C 
ATOM     18  C   UNL     1      -2.120   0.133   3.850  0.00  0.00    +0.065 C 
ATOM     19  N   UNL     1      -3.131  -0.546   4.435  0.00  0.00    -0.156 NA
ATOM     20  N   UNL     1      -3.038  -1.774   4.354  0.00  0.00    -0.151 NA
ATOM     21  C   UNL     1      -1.804  -2.082   3.611  0.00  0.00    +0.284 C 
ATOM     22  C   UNL     1      -2.006   1.635   3.813  0.00  0.00    +0.067 C 
BRANCH  21  23
ATOM     23  O   UNL     1      -0.902  -2.836   4.423  0.00  0.00    -0.366 OA
ATOM     24  H   UNL     1      -1.219  -3.722   4.644  0.00  0.00    +0.212 HD
ENDBRANCH  21  23
ENDBRANCH   8  17
ENDBRANCH   1   8
BRANCH   4  25
ATOM     25  O   UNL     1       4.438  -2.643   5.240  0.00  0.00    -0.486 OA
BRANCH  25  26
ATOM     26  C   UNL     1       4.561  -4.066   5.195  0.00  0.00    +0.265 C 
BRANCH  26  27
ATOM     27  C   UNL     1       5.788  -4.489   5.959  0.00  0.00    -0.003 A 
ATOM     28  C   UNL     1       6.575  -3.555   6.562  0.00  0.00    +0.007 A 
ATOM     29  C   UNL     1       7.713  -3.928   7.273  0.00  0.00    +0.001 A 
ATOM     30  C   UNL     1       8.073  -5.236   7.386  0.00  0.00    +0.008 A 
ATOM     31  C   UNL     1       7.287  -6.228   6.777  0.00  0.00    -0.018 A 
ATOM     32  C   UNL     1       6.125  -5.850   6.059  0.00  0.00    -0.011 A 
ATOM     33  C   UNL     1       5.334  -6.843   5.455  0.00  0.00    +0.009 A 
ATOM     34  C   UNL     1       5.691  -8.151   5.572  0.00  0.00    +0.001 A 
ATOM     35  C   UNL     1       6.830  -8.523   6.284  0.00  0.00    +0.001 A 
ATOM     36  C   UNL     1       7.627  -7.588   6.870  0.00  0.00    +0.008 A 
ENDBRANCH  26  27
ENDBRANCH  25  26
ENDBRANCH   4  25
TORSDOF 7
