REMARK  Name = ZINC09408731
REMARK  6 active torsions:
REMARK  status: ('A' for Active; 'I' for Inactive)
REMARK    1  A    between atoms: C_1  and  C_2
REMARK    2  A    between atoms: C_7  and  N_8
REMARK    3  A    between atoms: C_13  and  N_60
REMARK    4  A    between atoms: C_19  and  N_21
REMARK    5  A    between atoms: N_21  and  S_22
REMARK    6  A    between atoms: S_22  and  C_25
REMARK                            x       y       z     vdW  Elec       q    Type
REMARK                         _______ _______ _______ _____ _____    ______ ____
ROOT
ATOM      1  C   UNL     1       1.907  -2.291  -3.837  0.00  0.00    -0.050 C 
ATOM      2  C   UNL     1       3.095  -1.963  -4.744  0.00  0.00    -0.014 C 
ATOM      3  C   UNL     1       4.058  -3.152  -4.773  0.00  0.00    -0.001 C 
ATOM      4  C   UNL     1       4.561  -3.434  -3.356  0.00  0.00    +0.001 C 
ATOM      5  C   UNL     1       3.374  -3.762  -2.449  0.00  0.00    +0.019 C 
ATOM      6  C   UNL     1       2.411  -2.574  -2.420  0.00  0.00    +0.063 C 
ENDROOT
BRANCH   1  12
ATOM      7  N   UNL     1      -0.059   1.350  -4.688  0.00  0.00    -0.333 N 
ATOM      8  C   UNL     1       0.694   1.252  -3.429  0.00  0.00    +0.086 C 
ATOM      9  C   UNL     1       1.700   0.102  -3.528  0.00  0.00    -0.059 C 
ATOM     10  C   UNL     1       0.231  -1.051  -5.068  0.00  0.00    -0.059 C 
ATOM     11  C   UNL     1      -0.775   0.099  -4.969  0.00  0.00    +0.086 C 
ATOM     12  N   UNL     1       0.964  -1.153  -3.789  0.00  0.00    +0.385 N 
ATOM     13  H   UNL     1       0.291  -1.310  -3.030  0.00  0.00    -0.081 HD
BRANCH   7  20
ATOM     14  C   UNL     1       0.407   3.498  -6.494  0.00  0.00    +0.045 C 
ATOM     15  C   UNL     1      -0.748   3.506  -5.526  0.00  0.00    -0.029 A 
ATOM     16  C   UNL     1      -1.621   4.576  -5.501  0.00  0.00    +0.006 A 
ATOM     17  C   UNL     1      -2.678   4.587  -4.610  0.00  0.00    +0.020 A 
ATOM     18  C   UNL     1      -2.868   3.524  -3.744  0.00  0.00    +0.043 A 
ATOM     19  C   UNL     1      -2.000   2.449  -3.767  0.00  0.00    +0.043 A 
ATOM     20  C   UNL     1      -0.938   2.435  -4.662  0.00  0.00    +0.034 A 
ATOM     21 CL   UNL     1      -4.197   3.543  -2.627  0.00  0.00    -0.083 Cl
ENDBRANCH   7  20
ENDBRANCH   1  12
BRANCH   6  22
ATOM     22  N   UNL     1       1.273  -2.887  -1.551  0.00  0.00    -0.188 NA
ATOM     23  H   UNL     1       0.513  -3.375  -1.905  0.00  0.00    +0.148 HD
BRANCH  22  24
ATOM     24  S   UNL     1       1.286  -2.409   0.034  0.00  0.00    +0.059 S 
ATOM     25  O   UNL     1       2.541  -2.805   0.568  0.00  0.00    -0.153 OA
ATOM     26  O   UNL     1       0.051  -2.832   0.595  0.00  0.00    -0.153 OA
BRANCH  24  27
ATOM     27  C   UNL     1       1.267  -0.647   0.046  0.00  0.00    +0.105 A 
ATOM     28  C   UNL     1       0.063   0.031   0.064  0.00  0.00    +0.030 A 
ATOM     29  C   UNL     1       0.048   1.413   0.074  0.00  0.00    +0.022 A 
ATOM     30  C   UNL     1       1.238   2.118   0.066  0.00  0.00    +0.041 A 
ATOM     31  C   UNL     1       2.443   1.439   0.049  0.00  0.00    +0.022 A 
ATOM     32  C   UNL     1       2.457   0.057   0.039  0.00  0.00    +0.030 A 
ATOM     33 CL   UNL     1       1.220   3.854   0.079  0.00  0.00    -0.084 Cl
ENDBRANCH  24  27
ENDBRANCH  22  24
ENDBRANCH   6  22
TORSDOF 5
