REMARK  Name = ZINC40046168
REMARK  6 active torsions:
REMARK  status: ('A' for Active; 'I' for Inactive)
REMARK    1  A    between atoms: C_1  and  C_2
REMARK    2  A    between atoms: C_2  and  C_3
REMARK    3  A    between atoms: C_17  and  C_19
REMARK    4  A    between atoms: C_23  and  O_25
REMARK    5  A    between atoms: C_29  and  C_36
REMARK    6  A    between atoms: C_31  and  C_35
REMARK                            x       y       z     vdW  Elec       q    Type
REMARK                         _______ _______ _______ _____ _____    ______ ____
ROOT
ATOM      1  C   UNL     1      -1.412  -0.526   0.013  0.00  0.00    -0.047 A 
ATOM      2  C   UNL     1      -2.051  -0.766   1.221  0.00  0.00    +0.007 A 
ATOM      3  C   UNL     1      -3.341  -1.246   1.253  0.00  0.00    +0.047 A 
ATOM      4  C   UNL     1      -4.024  -1.496   0.062  0.00  0.00    +0.139 A 
ATOM      5  C   UNL     1      -3.369  -1.242  -1.154  0.00  0.00    +0.065 A 
ATOM      6  C   UNL     1      -2.062  -0.755  -1.168  0.00  0.00    +0.019 A 
ATOM      7  C   UNL     1      -4.093  -1.490  -2.426  0.00  0.00    +0.199 A 
ATOM      8  O   UNL     1      -3.553  -1.460  -3.518  0.00  0.00    -0.287 OA
ATOM      9  C   UNL     1      -5.520  -1.775  -2.244  0.00  0.00    +0.072 A 
ATOM     10  C   UNL     1      -6.041  -1.996  -1.000  0.00  0.00    +0.199 A 
ATOM     11  O   UNL     1      -5.288  -1.974   0.117  0.00  0.00    -0.450 OA
ATOM     12  C   UNL     1      -7.485  -2.243  -1.141  0.00  0.00    +0.289 C 
ATOM     13  O   UNL     1      -8.246  -2.469  -0.221  0.00  0.00    -0.266 OA
ATOM     14  N   UNL     1      -7.842  -2.180  -2.441  0.00  0.00    -0.232 N 
ATOM     15  C   UNL     1      -6.636  -1.884  -3.231  0.00  0.00    +0.152 C 
ATOM     16  C   UNL     1      -9.118  -2.363  -2.943  0.00  0.00    +0.169 A 
ATOM     17  N   UNL     1     -10.229  -2.622  -2.294  0.00  0.00    -0.224 NA
ATOM     18  C   UNL     1     -11.416  -2.777  -2.919  0.00  0.00    +0.083 A 
ATOM     19  C   UNL     1     -12.677  -3.057  -2.343  0.00  0.00    -0.024 A 
ATOM     20  C   UNL     1     -13.793  -3.185  -3.128  0.00  0.00    +0.009 A 
ATOM     21  C   UNL     1     -13.729  -3.046  -4.507  0.00  0.00    -0.049 A 
ATOM     22  C   UNL     1     -12.512  -2.772  -5.105  0.00  0.00    +0.020 A 
ATOM     23  C   UNL     1     -11.389  -2.642  -4.326  0.00  0.00    +0.041 A 
ATOM     24  S   UNL     1      -9.675  -2.298  -4.640  0.00  0.00    -0.052 S 
ATOM     25  C   UNL     1     -14.973  -3.193  -5.345  0.00  0.00    +0.044 C 
ATOM     26  C   UNL     1     -12.795  -3.217  -0.849  0.00  0.00    +0.046 C 
ENDROOT
BRANCH  15  27
ATOM     27  C   UNL     1      -6.805  -0.582  -3.970  0.00  0.00    -0.019 A 
ATOM     28  C   UNL     1      -7.483   0.467  -3.376  0.00  0.00    +0.006 A 
ATOM     29  C   UNL     1      -7.640   1.662  -4.052  0.00  0.00    +0.004 A 
ATOM     30  C   UNL     1      -7.120   1.812  -5.323  0.00  0.00    +0.045 A 
ATOM     31  C   UNL     1      -6.439   0.762  -5.921  0.00  0.00    +0.117 A 
ATOM     32  C   UNL     1      -6.277  -0.435  -5.238  0.00  0.00    +0.051 A 
BRANCH  31  33
ATOM     33  O   UNL     1      -5.926   0.907  -7.171  0.00  0.00    -0.507 OA
ATOM     34  H   UNL     1      -5.020   1.244  -7.188  0.00  0.00    +0.292 HD
ENDBRANCH  31  33
ENDBRANCH  15  27
BRANCH   1  36
ATOM     35  C   UNL     1      -0.019   1.526   0.010  0.00  0.00    +0.009 C 
ATOM     36  C   UNL     1       0.002  -0.004   0.002  0.00  0.00    +0.032 C 
ENDBRANCH   1  36
TORSDOF 3
