REMARK  Name = ZINC39468272
REMARK  6 active torsions:
REMARK  status: ('A' for Active; 'I' for Inactive)
REMARK    1  A    between atoms: C_1  and  S_2
REMARK    2  A    between atoms: S_2  and  P_3
REMARK    3  A    between atoms: C_11  and  C_28
REMARK    4  A    between atoms: C_12  and  C_21
REMARK    5  A    between atoms: C_26  and  O_27
REMARK    6  A    between atoms: C_33  and  O_34
REMARK                            x       y       z     vdW  Elec       q    Type
REMARK                         _______ _______ _______ _____ _____    ______ ____
ROOT
ATOM      1  P   UNL     1      -2.048  -0.545   0.019  0.00  0.00    +0.314 P 
ATOM      2  O   UNL     1      -2.697  -0.053   1.254  0.00  0.00    -0.262 OA
ATOM      3  N   UNL     1      -2.209  -2.183  -0.103  0.00  0.00    -0.283 NA
ATOM      4  N   UNL     1      -2.055  -2.753  -1.349  0.00  0.00    +0.398 N 
ATOM      5  C   UNL     1      -2.361  -4.183  -1.183  0.00  0.00    -0.046 C 
ATOM      6  C   UNL     1      -2.206  -4.930  -2.502  0.00  0.00    +0.005 C 
ATOM      7  C   UNL     1      -0.793  -4.815  -3.008  0.00  0.00    -0.016 C 
ATOM      8  C   UNL     1      -0.543  -4.995  -4.314  0.00  0.00    -0.011 C 
ATOM      9  C   UNL     1      -1.667  -5.316  -5.229  0.00  0.00    -0.011 C 
ATOM     10  C   UNL     1      -2.921  -5.005  -4.870  0.00  0.00    -0.014 C 
ATOM     11  C   UNL     1      -3.159  -4.331  -3.540  0.00  0.00    +0.016 C 
ATOM     12  C   UNL     1      -2.860  -2.837  -3.672  0.00  0.00    -0.003 C 
ATOM     13  C   UNL     1      -2.976  -2.143  -2.311  0.00  0.00    -0.020 C 
ATOM     14  C   UNL     1      -2.655  -0.659  -2.533  0.00  0.00    +0.157 C 
ATOM     15  O   UNL     1      -2.801   0.056  -1.293  0.00  0.00    -0.312 OA
ATOM     16  H   UNL     1      -2.405  -2.727   0.676  0.00  0.00    +0.112 HD
ATOM     17  H   UNL     1      -1.105  -2.631  -1.665  0.00  0.00    -0.055 HD
ENDROOT
BRANCH   9  18
ATOM     18  C   UNL     1      -1.406  -5.976  -6.531  0.00  0.00    +0.024 A 
ATOM     19  C   UNL     1      -0.858  -5.250  -7.586  0.00  0.00    +0.012 A 
ATOM     20  C   UNL     1      -0.616  -5.869  -8.796  0.00  0.00    +0.001 A 
ATOM     21  C   UNL     1      -0.916  -7.209  -8.965  0.00  0.00    +0.004 A 
ATOM     22  C   UNL     1      -1.460  -7.939  -7.925  0.00  0.00    +0.046 A 
ATOM     23  C   UNL     1      -1.702  -7.332  -6.703  0.00  0.00    +0.125 A 
BRANCH  23  24
ATOM     24  O   UNL     1      -2.232  -8.050  -5.678  0.00  0.00    -0.506 OA
ATOM     25  H   UNL     1      -3.199  -8.045  -5.653  0.00  0.00    +0.292 HD
ENDBRANCH  23  24
ENDBRANCH   9  18
BRANCH   8  26
ATOM     26  C   UNL     1       0.839  -4.874  -4.837  0.00  0.00    +0.024 A 
ATOM     27  C   UNL     1       1.557  -6.016  -5.188  0.00  0.00    +0.012 A 
ATOM     28  C   UNL     1       2.843  -5.898  -5.675  0.00  0.00    +0.001 A 
ATOM     29  C   UNL     1       3.423  -4.649  -5.817  0.00  0.00    +0.004 A 
ATOM     30  C   UNL     1       2.720  -3.510  -5.472  0.00  0.00    +0.046 A 
ATOM     31  C   UNL     1       1.426  -3.613  -4.987  0.00  0.00    +0.125 A 
BRANCH  31  32
ATOM     32  O   UNL     1       0.732  -2.494  -4.653  0.00  0.00    -0.506 OA
ATOM     33  H   UNL     1       0.847  -2.220  -3.733  0.00  0.00    +0.292 HD
ENDBRANCH  31  32
ENDBRANCH   8  26
BRANCH   1  35
ATOM     34  C   UNL     1      -0.022   1.810   0.012  0.00  0.00    +0.096 C 
ATOM     35  S   UNL     1       0.002  -0.004   0.002  0.00  0.00    -0.059 S 
ENDBRANCH   1  35
TORSDOF 5
