REMARK  Name = ZINC19499556
REMARK  11 active torsions:
REMARK  status: ('A' for Active; 'I' for Inactive)
REMARK    1  A    between atoms: C_1  and  C_2
REMARK    2  A    between atoms: C_2  and  C_3
REMARK    3  A    between atoms: C_3  and  C_4
REMARK    4  A    between atoms: C_3  and  C_5
REMARK    5  A    between atoms: C_3  and  N_6
REMARK    6  A    between atoms: C_7  and  C_11
REMARK    7  A    between atoms: C_11  and  C_13
REMARK    8  A    between atoms: C_11  and  N_27
REMARK    9  A    between atoms: C_17  and  C_26
REMARK   10  A    between atoms: C_19  and  C_25
REMARK   11  A    between atoms: N_30  and  C_33
REMARK                            x       y       z     vdW  Elec       q    Type
REMARK                         _______ _______ _______ _____ _____    ______ ____
ROOT
ATOM      1  C   UNL     1      -2.558   1.759   0.141  0.00  0.00    +0.162 C 
ENDROOT
BRANCH   1   2
ATOM      2  C   UNL     1      -3.189   1.834  -1.226  0.00  0.00    +0.042 A 
ATOM      3  C   UNL     1      -3.572   0.697  -1.856  0.00  0.00    +0.021 A 
ATOM      4  C   UNL     1      -4.186   0.805  -3.182  0.00  0.00    -0.001 A 
ATOM      5  C   UNL     1      -4.605  -0.333  -3.880  0.00  0.00    +0.013 A 
ATOM      6  C   UNL     1      -5.168  -0.198  -5.117  0.00  0.00    -0.050 A 
ATOM      7  C   UNL     1      -5.328   1.057  -5.688  0.00  0.00    +0.008 A 
ATOM      8  C   UNL     1      -4.923   2.191  -5.018  0.00  0.00    -0.026 A 
ATOM      9  C   UNL     1      -4.346   2.079  -3.757  0.00  0.00    +0.052 A 
ATOM     10  N   UNL     1      -3.930   3.197  -3.066  0.00  0.00    -0.322 N 
ATOM     11  H   UNL     1      -4.052   4.196  -3.510  0.00  0.00    +0.169 HD
ATOM     12  C   UNL     1      -3.372   3.088  -1.847  0.00  0.00    +0.254 A 
ATOM     13  O   UNL     1      -3.016   4.098  -1.264  0.00  0.00    -0.268 OA
ATOM     14  C   UNL     1      -5.103   3.547  -5.650  0.00  0.00    +0.046 C 
ATOM     15  C   UNL     1      -5.620  -1.424  -5.868  0.00  0.00    +0.044 C 
ENDBRANCH   1   2
BRANCH   1  16
ATOM     16  N   UNL     1      -3.307   2.612   1.073  0.00  0.00    -0.292 NA
ATOM     17  C   UNL     1      -2.668   2.634   2.397  0.00  0.00    +0.067 C 
ATOM     18  C   UNL     1      -3.431   3.593   3.313  0.00  0.00    -0.063 C 
ATOM     19  N   UNL     1      -4.832   3.159   3.415  0.00  0.00    +0.383 N 
ATOM     20  C   UNL     1      -5.471   3.137   2.092  0.00  0.00    -0.063 C 
ATOM     21  C   UNL     1      -4.708   2.178   1.176  0.00  0.00    +0.067 C 
ATOM     22  H   UNL     1      -4.841   2.135   3.814  0.00  0.00    -0.081 HD
BRANCH  19  23
ATOM     23  C   UNL     1      -5.580   4.013   4.347  0.00  0.00    -0.068 C 
ATOM     24  C   UNL     1      -5.525   5.464   3.867  0.00  0.00    -0.015 C 
ATOM     25  C   UNL     1      -6.305   6.353   4.838  0.00  0.00    -0.002 C 
ATOM     26  C   UNL     1      -5.683   6.253   6.232  0.00  0.00    -0.000 C 
ATOM     27  C   UNL     1      -5.739   4.801   6.713  0.00  0.00    -0.002 C 
ATOM     28  C   UNL     1      -4.959   3.913   5.742  0.00  0.00    -0.015 C 
ENDBRANCH  19  23
ENDBRANCH   1  16
BRANCH   1  30
ATOM     29  N   UNL     1      -0.024   1.481   0.214  0.00  0.00    -0.222 N 
ATOM     30  C   UNL     1      -1.130   2.233   0.063  0.00  0.00    +0.174 A 
ATOM     31  N   UNL     1      -0.724   3.459  -0.163  0.00  0.00    -0.111 NA
ATOM     32  N   UNL     1       0.564   3.458  -0.159  0.00  0.00    -0.023 NA
ATOM     33  N   UNL     1       0.991   2.264   0.068  0.00  0.00    -0.043 NA
BRANCH  29  34
ATOM     34  C   UNL     1       0.019   0.042   0.486  0.00  0.00    +0.062 C 
ATOM     35  C   UNL     1      -0.645  -0.242   1.835  0.00  0.00    +0.036 C 
ATOM     36  C   UNL     1      -0.728  -0.709  -0.618  0.00  0.00    +0.036 C 
BRANCH  34  38
ATOM     37  C   UNL     1       1.521  -1.928   0.810  0.00  0.00    +0.006 C 
ATOM     38  C   UNL     1       1.475  -0.426   0.526  0.00  0.00    +0.026 C 
ENDBRANCH  34  38
ENDBRANCH  29  34
ENDBRANCH   1  30
TORSDOF 6
