REMARK  Name = ZINC26288817
REMARK  10 active torsions:
REMARK  status: ('A' for Active; 'I' for Inactive)
REMARK    1  A    between atoms: C_1  and  C_2
REMARK    2  A    between atoms: C_5  and  C_7
REMARK    3  A    between atoms: C_7  and  C_8
REMARK    4  A    between atoms: C_7  and  C_27
REMARK    5  A    between atoms: C_7  and  O_31
REMARK    6  A    between atoms: C_8  and  C_9
REMARK    7  A    between atoms: C_9  and  N_10
REMARK    8  A    between atoms: N_13  and  C_14
REMARK    9  A    between atoms: C_14  and  C_16
REMARK   10  A    between atoms: C_14  and  C_22
REMARK                            x       y       z     vdW  Elec       q    Type
REMARK                         _______ _______ _______ _____ _____    ______ ____
ROOT
ATOM      1  N   UNL     1      -0.050   1.323   0.106  0.00  0.00    -0.299 N 
ATOM      2  C   UNL     1      -0.042  -0.011   0.298  0.00  0.00    +0.300 C 
ATOM      3  O   UNL     1      -1.078  -0.594   0.556  0.00  0.00    -0.253 OA
ATOM      4  N   UNL     1       1.113  -0.699   0.204  0.00  0.00    -0.288 N 
ATOM      5  H   UNL     1       0.888   1.850  -0.123  0.00  0.00    +0.150 HD
ATOM      6  H   UNL     1       2.050  -0.172  -0.029  0.00  0.00    +0.151 HD
ENDROOT
BRANCH   1   7
ATOM      7  C   UNL     1      -1.306   2.070   0.202  0.00  0.00    +0.109 C 
BRANCH   7   8
ATOM      8  C   UNL     1      -1.038   3.554  -0.057  0.00  0.00    +0.071 C 
BRANCH   8   9
ATOM      9  C   UNL     1      -2.366   4.313  -0.089  0.00  0.00    +0.220 C 
BRANCH   9  14
ATOM     10  C   UNL     1      -3.753   2.212  -4.460  0.00  0.00    +0.086 C 
ATOM     11  C   UNL     1      -3.832   2.857  -3.099  0.00  0.00    +0.102 A 
ATOM     12  C   UNL     1      -4.962   3.153  -2.433  0.00  0.00    +0.045 A 
ATOM     13  C   UNL     1      -4.573   3.742  -1.208  0.00  0.00    +0.048 A 
ATOM     14  C   UNL     1      -3.228   3.770  -1.199  0.00  0.00    +0.146 A 
ATOM     15  O   UNL     1      -2.785   3.238  -2.350  0.00  0.00    -0.462 OA
ENDBRANCH   9  14
BRANCH   9  16
ATOM     16  C   UNL     1      -2.097   5.800  -0.332  0.00  0.00    +0.425 C 
ATOM     17  F   UNL     1      -1.472   5.963  -1.573  0.00  0.00    -0.167 F 
ATOM     18  F   UNL     1      -3.308   6.500  -0.324  0.00  0.00    -0.167 F 
ATOM     19  F   UNL     1      -1.266   6.295   0.678  0.00  0.00    -0.167 F 
ENDBRANCH   9  16
BRANCH   9  20
ATOM     20  O   UNL     1      -3.039   4.149   1.161  0.00  0.00    -0.373 OA
ATOM     21  H   UNL     1      -2.561   4.489   2.092  0.00  0.00    +0.211 HD
ENDBRANCH   9  20
ENDBRANCH   8   9
ENDBRANCH   7   8
ENDBRANCH   1   7
BRANCH   4  22
ATOM     22  C   UNL     1       1.121  -2.149   0.413  0.00  0.00    +0.142 C 
BRANCH  22  23
ATOM     23  C   UNL     1       2.296  -2.755  -0.311  0.00  0.00    -0.022 A 
ATOM     24  C   UNL     1       3.515  -2.104  -0.314  0.00  0.00    +0.006 A 
ATOM     25  C   UNL     1       4.594  -2.662  -0.975  0.00  0.00    +0.000 A 
ATOM     26  C   UNL     1       4.451  -3.865  -1.640  0.00  0.00    +0.000 A 
ATOM     27  C   UNL     1       3.230  -4.513  -1.641  0.00  0.00    +0.000 A 
ATOM     28  C   UNL     1       2.152  -3.958  -0.977  0.00  0.00    +0.006 A 
ENDBRANCH  22  23
BRANCH  22  29
ATOM     29  C   UNL     1       1.233  -2.444   1.887  0.00  0.00    +0.014 A 
ATOM     30  C   UNL     1       0.601  -3.395   2.618  0.00  0.00    +0.013 A 
ATOM     31  C   UNL     1       0.864  -3.484   3.972  0.00  0.00    +0.008 A 
ATOM     32  C   UNL     1       1.738  -2.612   4.531  0.00  0.00    +0.045 A 
ATOM     33  S   UNL     1       2.227  -1.627   3.124  0.00  0.00    -0.099 S 
ENDBRANCH  22  29
ENDBRANCH   4  22
TORSDOF 9
