REMARK  Name = ZINC05042152
REMARK  7 active torsions:
REMARK  status: ('A' for Active; 'I' for Inactive)
REMARK    1  A    between atoms: C_1  and  C_2
REMARK    2  A    between atoms: C_2  and  C_3
REMARK    3  A    between atoms: C_3  and  O_4
REMARK    4  A    between atoms: O_4  and  C_5
REMARK    5  A    between atoms: C_8  and  C_12
REMARK    6  A    between atoms: C_13  and  C_14
REMARK    7  A    between atoms: C_13  and  C_16
REMARK                            x       y       z     vdW  Elec       q    Type
REMARK                         _______ _______ _______ _____ _____    ______ ____
ROOT
ATOM      1  C   UNL     1       0.114   0.136  -0.147  0.00  0.00    +0.030 C 
ATOM      2  C   UNL     1      -0.150   0.991   0.884  0.00  0.00    +0.094 C 
ENDROOT
BRANCH   2   3
ATOM      3  C   UNL     1       0.904   1.309   1.865  0.00  0.00    +0.150 A 
ATOM      4  N   UNL     1       0.806   2.261   2.846  0.00  0.00    -0.337 N 
ATOM      5  H   UNL     1       0.020   2.854   3.021  0.00  0.00    +0.167 HD
ATOM      6  C   UNL     1       1.996   2.247   3.548  0.00  0.00    +0.066 A 
ATOM      7  C   UNL     1       2.485   2.967   4.629  0.00  0.00    +0.028 A 
ATOM      8  C   UNL     1       3.752   2.706   5.107  0.00  0.00    +0.002 A 
ATOM      9  C   UNL     1       4.540   1.730   4.516  0.00  0.00    +0.002 A 
ATOM     10  C   UNL     1       4.077   1.011   3.451  0.00  0.00    +0.030 A 
ATOM     11  C   UNL     1       2.796   1.258   2.947  0.00  0.00    +0.089 A 
ATOM     12  N   UNL     1       2.075   0.720   1.934  0.00  0.00    -0.227 NA
ENDBRANCH   2   3
BRANCH   1  16
ATOM     13  C   UNL     1       4.093  -1.117  -0.897  0.00  0.00    +0.134 A 
ATOM     14  C   UNL     1       3.830   0.216  -0.602  0.00  0.00    +0.047 A 
ATOM     15  C   UNL     1       2.540   0.630  -0.363  0.00  0.00    +0.011 A 
ATOM     16  C   UNL     1       1.490  -0.298  -0.407  0.00  0.00    -0.022 A 
ATOM     17  C   UNL     1       1.760  -1.640  -0.705  0.00  0.00    +0.027 A 
ATOM     18  C   UNL     1       3.055  -2.041  -0.948  0.00  0.00    +0.060 A 
ATOM     19 BR   UNL     1       3.422  -3.852  -1.350  0.00  0.00    -0.047 Br
BRANCH  13  20
ATOM     20  O   UNL     1       5.367  -1.518  -1.138  0.00  0.00    -0.491 OA
BRANCH  20  21
ATOM     21  C   UNL     1       6.386  -0.518  -1.070  0.00  0.00    +0.229 C 
BRANCH  21  23
ATOM     22  C   UNL     1       8.836  -0.082  -1.295  0.00  0.00    +0.007 C 
ATOM     23  C   UNL     1       7.745  -1.153  -1.367  0.00  0.00    +0.038 C 
ENDBRANCH  21  23
ENDBRANCH  20  21
ENDBRANCH  13  20
ENDBRANCH   1  16
BRANCH   2  24
ATOM     24  C   UNL     1      -1.448   1.583   1.009  0.00  0.00    +0.103 C 
ATOM     25  N   UNL     1      -2.477   2.053   1.109  0.00  0.00    -0.191 NA
ENDBRANCH   2  24
TORSDOF 6
