REMARK  Name = ZINC63896910
REMARK  8 active torsions:
REMARK  status: ('A' for Active; 'I' for Inactive)
REMARK    1  A    between atoms: C_1  and  C_2
REMARK    2  A    between atoms: C_2  and  O_3
REMARK    3  A    between atoms: O_3  and  C_4
REMARK    4  A    between atoms: N_6  and  C_7
REMARK    5  A    between atoms: C_7  and  C_9
REMARK    6  A    between atoms: C_7  and  C_19
REMARK    7  A    between atoms: C_9  and  C_10
REMARK    8  A    between atoms: C_25  and  C_28
REMARK                            x       y       z     vdW  Elec       q    Type
REMARK                         _______ _______ _______ _____ _____    ______ ____
ROOT
ATOM      1  C   UNL     1      -2.907  -3.823   0.009  0.00  0.00    +0.166 C 
ENDROOT
BRANCH   1   2
ATOM      2  C   UNL     1      -2.273  -4.398  -1.230  0.00  0.00    +0.239 C 
ATOM      3  O   UNL     1      -1.437  -3.761  -1.835  0.00  0.00    -0.273 OA
ATOM      4  N   UNL     1      -2.634  -5.621  -1.667  0.00  0.00    -0.263 N 
ATOM      5  C   UNL     1      -2.049  -6.152  -2.810  0.00  0.00    +0.165 A 
ATOM      6  N   UNL     1      -2.266  -7.314  -3.397  0.00  0.00    -0.225 NA
ATOM      7  H   UNL     1      -3.303  -6.131  -1.183  0.00  0.00    +0.157 HD
ATOM      8  C   UNL     1      -1.612  -7.664  -4.494  0.00  0.00    +0.080 A 
ATOM      9  C   UNL     1      -0.694  -6.804  -5.030  0.00  0.00    +0.076 A 
ATOM     10  S   UNL     1      -0.808  -5.439  -3.880  0.00  0.00    -0.060 S 
BRANCH   8  11
ATOM     11  C   UNL     1      -1.873  -8.975  -5.135  0.00  0.00    +0.001 A 
ATOM     12  C   UNL     1      -1.178  -9.341  -6.287  0.00  0.00    +0.010 A 
ATOM     13  C   UNL     1      -1.425 -10.563  -6.879  0.00  0.00    +0.001 A 
ATOM     14  C   UNL     1      -2.360 -11.423  -6.333  0.00  0.00    +0.000 A 
ATOM     15  C   UNL     1      -3.053 -11.065  -5.191  0.00  0.00    +0.001 A 
ATOM     16  C   UNL     1      -2.810  -9.849  -4.586  0.00  0.00    +0.010 A 
ENDBRANCH   8  11
ENDBRANCH   1   2
BRANCH   1  19
ATOM     17  C   UNL     1      -1.497  -1.836   0.006  0.00  0.00    +0.401 C 
ATOM     18  O   UNL     1      -0.523  -2.563  -0.007  0.00  0.00    -0.226 OA
ATOM     19  N   UNL     1      -2.735  -2.368   0.015  0.00  0.00    -0.270 N 
ATOM     20  H   UNL     1      -3.512  -1.787   0.026  0.00  0.00    +0.153 HD
BRANCH  17  21
ATOM     21  O   UNL     1      -1.339  -0.499   0.012  0.00  0.00    -0.451 OA
BRANCH  21  23
ATOM     22  C   UNL     1      -0.019   1.526   0.010  0.00  0.00    +0.048 C 
ATOM     23  C   UNL     1       0.002  -0.004   0.002  0.00  0.00    +0.230 C 
ENDBRANCH  21  23
ENDBRANCH  17  21
ENDBRANCH   1  19
BRANCH   1  24
ATOM     24  C   UNL     1      -2.239  -4.420   1.249  0.00  0.00    +0.065 C 
BRANCH  24  25
ATOM     25  C   UNL     1      -2.953  -3.940   2.486  0.00  0.00    -0.039 C 
ATOM     26  C   UNL     1      -3.937  -4.580   3.158  0.00  0.00    -0.001 A 
ATOM     27  C   UNL     1      -4.612  -5.867   2.945  0.00  0.00    +0.010 A 
ATOM     28  C   UNL     1      -5.583  -6.248   3.806  0.00  0.00    +0.001 A 
ATOM     29  C   UNL     1      -5.960  -5.448   4.893  0.00  0.00    +0.002 A 
ATOM     30  C   UNL     1      -5.387  -4.254   5.153  0.00  0.00    +0.026 A 
ATOM     31  C   UNL     1      -4.354  -3.754   4.313  0.00  0.00    +0.043 A 
ATOM     32  N   UNL     1      -3.655  -2.645   4.354  0.00  0.00    -0.380 N 
ATOM     33  C   UNL     1      -2.711  -2.646   3.231  0.00  0.00    +0.144 C 
ATOM     34  H   UNL     1      -3.745  -1.944   5.017  0.00  0.00    +0.160 HD
ENDBRANCH  24  25
ENDBRANCH   1  24
TORSDOF 7
