REMARK  Name = ZINC21969397
REMARK  10 active torsions:
REMARK  status: ('A' for Active; 'I' for Inactive)
REMARK    1  A    between atoms: C_1  and  C_2
REMARK    2  A    between atoms: C_5  and  C_8
REMARK    3  A    between atoms: N_13  and  C_14
REMARK    4  A    between atoms: C_14  and  C_15
REMARK    5  A    between atoms: N_17  and  N_18
REMARK    6  A    between atoms: C_19  and  C_21
REMARK    7  A    between atoms: C_28  and  C_31
REMARK    8  A    between atoms: C_31  and  C_32
REMARK    9  A    between atoms: C_31  and  C_33
REMARK   10  A    between atoms: C_31  and  C_34
REMARK                            x       y       z     vdW  Elec       q    Type
REMARK                         _______ _______ _______ _____ _____    ______ ____
ROOT
ATOM      1  C   UNL     1      -2.634   1.538  -0.174  0.00  0.00    +0.249 C 
ATOM      2  O   UNL     1      -2.418   0.361  -0.367  0.00  0.00    -0.272 OA
ATOM      3  N   UNL     1      -1.617   2.422  -0.193  0.00  0.00    -0.233 N 
ATOM      4  H   UNL     1      -1.813   3.490  -0.018  0.00  0.00    +0.173 HD
ENDROOT
BRANCH   3   5
ATOM      5  N   UNL     1      -0.310   1.980  -0.435  0.00  0.00    -0.230 N 
ATOM      6  C   UNL     1       0.707   2.864  -0.459  0.00  0.00    +0.267 C 
ATOM      7  O   UNL     1       0.490   4.046  -0.265  0.00  0.00    -0.268 OA
ATOM      8  H   UNL     1      -0.113   0.911  -0.605  0.00  0.00    +0.173 HD
BRANCH   6   9
ATOM      9  C   UNL     1       2.074   2.403  -0.718  0.00  0.00    +0.076 A 
ATOM     10  C   UNL     1       3.243   3.137  -0.790  0.00  0.00    +0.024 A 
ATOM     11  C   UNL     1       4.425   2.461  -1.046  0.00  0.00    -0.036 A 
ATOM     12  C   UNL     1       4.336   1.109  -1.220  0.00  0.00    -0.006 A 
ATOM     13  S   UNL     1       2.663   0.747  -1.031  0.00  0.00    -0.088 S 
ATOM     14  C   UNL     1       5.457   0.160  -1.510  0.00  0.00    +0.043 C 
ATOM     15  C   UNL     1       6.785   0.875  -1.217  0.00  0.00    +0.009 C 
ATOM     16  C   UNL     1       6.757   2.255  -1.880  0.00  0.00    -0.001 C 
ATOM     17  C   UNL     1       5.776   3.167  -1.143  0.00  0.00    +0.040 C 
BRANCH  16  18
ATOM     18  C   UNL     1       8.157   2.870  -1.831  0.00  0.00    -0.035 C 
ATOM     19  C   UNL     1       8.597   3.022  -0.373  0.00  0.00    +0.011 C 
ATOM     20  C   UNL     1       9.140   1.958  -2.568  0.00  0.00    +0.011 C 
ATOM     21  C   UNL     1       8.134   4.244  -2.503  0.00  0.00    +0.011 C 
ENDBRANCH  16  18
ENDBRANCH   6   9
ENDBRANCH   3   5
BRANCH   1  22
ATOM     22  C   UNL     1      -4.040   2.014   0.086  0.00  0.00    +0.223 C 
BRANCH  22  28
ATOM     23  C   UNL     1      -5.345   0.115   1.143  0.00  0.00    +0.165 A 
ATOM     24  N   UNL     1      -6.164  -0.812   0.732  0.00  0.00    -0.128 NA
ATOM     25  N   UNL     1      -6.322  -0.670  -0.653  0.00  0.00    -0.121 NA
ATOM     26  C   UNL     1      -5.568   0.380  -1.042  0.00  0.00    +0.203 A 
ATOM     27  S   UNL     1      -5.414   0.977  -2.639  0.00  0.00    -0.009 SA
ATOM     28  N   UNL     1      -4.956   0.871   0.054  0.00  0.00    -0.292 N 
BRANCH  23  33
ATOM     29  C   UNL     1      -3.638   0.925   6.580  0.00  0.00    +0.044 C 
ATOM     30  C   UNL     1      -4.085   0.713   5.156  0.00  0.00    -0.050 A 
ATOM     31  C   UNL     1      -3.333   1.227   4.114  0.00  0.00    +0.004 A 
ATOM     32  C   UNL     1      -3.737   1.036   2.809  0.00  0.00    +0.012 A 
ATOM     33  C   UNL     1      -4.907   0.324   2.541  0.00  0.00    +0.019 A 
ATOM     34  C   UNL     1      -5.663  -0.186   3.596  0.00  0.00    +0.012 A 
ATOM     35  C   UNL     1      -5.246   0.006   4.897  0.00  0.00    +0.004 A 
ENDBRANCH  23  33
ENDBRANCH  22  28
ENDBRANCH   1  22
TORSDOF 6
