REMARK  Name = ZINC41701504
REMARK  5 active torsions:
REMARK  status: ('A' for Active; 'I' for Inactive)
REMARK    1  A    between atoms: C_12  and  N_13
REMARK    2  A    between atoms: N_13  and  C_14
REMARK    3  A    between atoms: C_14  and  C_15
REMARK    4  A    between atoms: C_15  and  C_17
REMARK    5  A    between atoms: C_15  and  O_25
REMARK                            x       y       z     vdW  Elec       q    Type
REMARK                         _______ _______ _______ _____ _____    ______ ____
ROOT
ATOM      1  N   UNL     1       3.890  -4.648  -0.158  0.00  0.00    -0.346 N 
ATOM      2  H   UNL     1       4.687  -4.096  -0.164  0.00  0.00    +0.146 HD
ENDROOT
BRANCH   1  14
ATOM      3  C   UNL     1       0.055   1.358   0.563  0.00  0.00    +0.001 A 
ATOM      4  C   UNL     1       1.227   2.050   0.856  0.00  0.00    +0.002 A 
ATOM      5  C   UNL     1       2.433   1.423   0.915  0.00  0.00    +0.024 A 
ATOM      6  C   UNL     1       2.512   0.039   0.676  0.00  0.00    +0.041 A 
ATOM      7  C   UNL     1       1.279  -0.688   0.368  0.00  0.00    -0.003 A 
ATOM      8  C   UNL     1       0.062   0.019   0.321  0.00  0.00    +0.010 A 
ATOM      9  C   UNL     1       1.330  -2.066   0.126  0.00  0.00    +0.024 C 
ATOM     10  C   UNL     1       2.577  -2.702   0.190  0.00  0.00    +0.051 C 
ATOM     11  C   UNL     1       3.773  -1.905   0.506  0.00  0.00    +0.249 C 
ATOM     12  N   UNL     1       3.683  -0.601   0.728  0.00  0.00    -0.281 N 
ATOM     13  O   UNL     1       4.864  -2.452   0.564  0.00  0.00    -0.270 OA
ATOM     14  C   UNL     1       2.683  -4.081  -0.043  0.00  0.00    +0.080 C 
ATOM     15  H   UNL     1       4.487  -0.099   0.934  0.00  0.00    +0.155 HD
ENDBRANCH   1  14
BRANCH   1  16
ATOM     16  C   UNL     1       4.006  -6.104  -0.277  0.00  0.00    +0.137 C 
BRANCH  16  17
ATOM     17  C   UNL     1       5.482  -6.490  -0.394  0.00  0.00    +0.161 C 
BRANCH  17  18
ATOM     18  C   UNL     1       5.596  -7.972  -0.638  0.00  0.00    -0.015 A 
ATOM     19  C   UNL     1       5.478  -8.857   0.417  0.00  0.00    +0.009 A 
ATOM     20  C   UNL     1       5.582 -10.217   0.196  0.00  0.00    +0.041 A 
ATOM     21  C   UNL     1       5.804 -10.695  -1.085  0.00  0.00    +0.158 A 
ATOM     22  C   UNL     1       5.921  -9.808  -2.143  0.00  0.00    +0.159 A 
ATOM     23  C   UNL     1       5.812  -8.446  -1.919  0.00  0.00    +0.047 A 
ATOM     24  F   UNL     1       6.138 -10.271  -3.393  0.00  0.00    -0.202 F 
ATOM     25  F   UNL     1       5.906 -12.024  -1.302  0.00  0.00    -0.202 F 
ENDBRANCH  17  18
BRANCH  17  26
ATOM     26  O   UNL     1       6.160  -6.153   0.818  0.00  0.00    -0.386 OA
ATOM     27  H   UNL     1       5.810  -6.599   1.602  0.00  0.00    +0.210 HD
ENDBRANCH  17  26
ENDBRANCH  16  17
ENDBRANCH   1  16
TORSDOF 5
