REMARK  Name = ZINC02254292
REMARK  8 active torsions:
REMARK  status: ('A' for Active; 'I' for Inactive)
REMARK    1  A    between atoms: C_1  and  C_2
REMARK    2  A    between atoms: C_5  and  C_8
REMARK    3  A    between atoms: C_8  and  N_9
REMARK    4  A    between atoms: C_10  and  C_12
REMARK    5  A    between atoms: N_23  and  C_26
REMARK    6  A    between atoms: C_24  and  N_25
REMARK    7  A    between atoms: C_26  and  C_27
REMARK    8  A    between atoms: C_27  and  C_28
REMARK                            x       y       z     vdW  Elec       q    Type
REMARK                         _______ _______ _______ _____ _____    ______ ____
ROOT
ATOM      1  C   UNL     1       1.147   5.877   3.027  0.00  0.00    +0.103 A 
ATOM      2  C   UNL     1      -0.028   6.150   3.870  0.00  0.00    +0.122 A 
ATOM      3  C   UNL     1       0.513   6.606   5.154  0.00  0.00    +0.162 A 
ATOM      4  N   UNL     1      -0.313   6.931   6.125  0.00  0.00    -0.226 NA
ATOM      5  C   UNL     1      -1.635   6.841   5.934  0.00  0.00    +0.092 A 
ATOM      6  C   UNL     1      -2.526   7.186   6.968  0.00  0.00    +0.030 A 
ATOM      7  C   UNL     1      -3.868   7.092   6.765  0.00  0.00    +0.002 A 
ATOM      8  C   UNL     1      -4.380   6.659   5.543  0.00  0.00    +0.002 A 
ATOM      9  C   UNL     1      -3.550   6.317   4.520  0.00  0.00    +0.030 A 
ATOM     10  C   UNL     1      -2.156   6.400   4.692  0.00  0.00    +0.090 A 
ATOM     11  N   UNL     1      -1.331   6.066   3.692  0.00  0.00    -0.241 NA
ATOM     12  N   UNL     1       1.888   6.590   5.040  0.00  0.00    -0.312 N 
ATOM     13  C   UNL     1       2.265   6.161   3.805  0.00  0.00    +0.112 A 
ENDROOT
BRANCH   1  15
ATOM     14  N   UNL     1       1.157   4.074   1.394  0.00  0.00    -0.307 N 
ATOM     15  C   UNL     1       1.141   5.397   1.647  0.00  0.00    +0.250 C 
ATOM     16  O   UNL     1       1.122   6.193   0.725  0.00  0.00    -0.270 OA
ATOM     17  H   UNL     1       1.172   3.440   2.128  0.00  0.00    +0.149 HD
BRANCH  14  18
ATOM     18  C   UNL     1       1.151   3.592   0.010  0.00  0.00    +0.139 C 
BRANCH  18  23
ATOM     19  C   UNL     1       1.229  -2.186  -0.022  0.00  0.00    +0.044 C 
ATOM     20  C   UNL     1       1.208  -0.679  -0.014  0.00  0.00    -0.050 A 
ATOM     21  C   UNL     1       0.002  -0.004   0.002  0.00  0.00    +0.003 A 
ATOM     22  C   UNL     1      -0.017   1.378   0.010  0.00  0.00    +0.005 A 
ATOM     23  C   UNL     1       1.171   2.086   0.002  0.00  0.00    -0.030 A 
ATOM     24  C   UNL     1       2.377   1.411  -0.014  0.00  0.00    +0.005 A 
ATOM     25  C   UNL     1       2.396   0.029  -0.021  0.00  0.00    +0.003 A 
ENDBRANCH  18  23
ENDBRANCH  14  18
ENDBRANCH   1  15
BRANCH  13  26
ATOM     26  N   UNL     1       3.563   6.029   3.385  0.00  0.00    -0.344 N 
ATOM     27  H   UNL     1       3.753   5.718   2.486  0.00  0.00    +0.144 HD
ATOM     28  H   UNL     1       4.292   6.247   3.987  0.00  0.00    +0.144 HD
ENDBRANCH  13  26
BRANCH  12  29
ATOM     29  C   UNL     1       2.816   6.977   6.105  0.00  0.00    +0.129 C 
BRANCH  29  30
ATOM     30  C   UNL     1       3.163   5.749   6.950  0.00  0.00    +0.052 C 
BRANCH  30  31
ATOM     31  C   UNL     1       4.118   6.147   8.046  0.00  0.00    -0.072 C 
ATOM     32  C   UNL     1       3.623   6.436   9.207  0.00  0.00    -0.028 C 
ATOM     33  C   UNL     1       4.444   6.857  10.390  0.00  0.00    +0.027 C 
ATOM     34  C   UNL     1       5.913   6.490  10.169  0.00  0.00    +0.004 C 
ATOM     35  C   UNL     1       6.335   6.992   8.782  0.00  0.00    +0.005 C 
ATOM     36  C   UNL     1       5.583   6.177   7.726  0.00  0.00    +0.030 C 
ENDBRANCH  30  31
ENDBRANCH  29  30
ENDBRANCH  12  29
TORSDOF 7
