REMARK  Name = ZINC05479263
REMARK  1 active torsions:
REMARK  status: ('A' for Active; 'I' for Inactive)
REMARK    1  A    between atoms: C_7  and  C_11
REMARK                            x       y       z     vdW  Elec       q    Type
REMARK                         _______ _______ _______ _____ _____    ______ ____
ROOT
ATOM      1  C   UNL     1       3.525   3.858  -1.042  0.00  0.00    +0.000 C 
ATOM      2  C   UNL     1       2.622   3.045  -1.947  0.00  0.00    +0.000 C 
ATOM      3  C   UNL     1       2.891   1.570  -1.634  0.00  0.00    +0.006 C 
ATOM      4  C   UNL     1       2.495   1.302  -0.173  0.00  0.00    +0.055 C 
ATOM      5  C   UNL     1       1.071   1.776   0.001  0.00  0.00    +0.040 A 
ATOM      6  C   UNL     1       0.657   3.050   0.107  0.00  0.00    +0.002 A 
ATOM      7  C   UNL     1      -0.762   3.026   0.068  0.00  0.00    +0.116 A 
ATOM      8  N   UNL     1      -1.153   1.774   0.017  0.00  0.00    -0.172 NA
ATOM      9  N   UNL     1      -0.011   0.966   0.007  0.00  0.00    -0.281 N 
ATOM     10  H   UNL     1       0.003  -0.034   0.006  0.00  0.00    +0.189 HD
ATOM     11  C   UNL     1       1.432   4.338   0.272  0.00  0.00    +0.039 C 
ATOM     12  C   UNL     1       2.938   4.091   0.341  0.00  0.00    +0.005 C 
ENDROOT
BRANCH   7  13
ATOM     13  C   UNL     1      -1.652   4.215   0.079  0.00  0.00    +0.116 A 
ATOM     14  C   UNL     1      -3.072   4.190   0.035  0.00  0.00    +0.002 A 
ATOM     15  C   UNL     1      -3.482   5.470   0.001  0.00  0.00    +0.040 A 
ATOM     16  N   UNL     1      -2.402   6.276   0.099  0.00  0.00    -0.281 N 
ATOM     17  H   UNL     1      -2.416   7.275   0.144  0.00  0.00    +0.189 HD
ATOM     18  N   UNL     1      -1.261   5.466   0.124  0.00  0.00    -0.172 NA
ATOM     19  C   UNL     1      -4.901   5.954  -0.187  0.00  0.00    +0.055 C 
ATOM     20  C   UNL     1      -5.261   5.765  -1.670  0.00  0.00    +0.006 C 
ATOM     21  C   UNL     1      -4.987   4.308  -2.052  0.00  0.00    +0.000 C 
ATOM     22  C   UNL     1      -5.915   3.452  -1.212  0.00  0.00    +0.000 C 
ATOM     23  C   UNL     1      -5.359   3.144   0.169  0.00  0.00    +0.005 C 
ATOM     24  C   UNL     1      -3.852   2.898   0.117  0.00  0.00    +0.039 C 
ENDBRANCH   7  13
TORSDOF 1
