REMARK  Name = ZINC01886325
REMARK  16 active torsions:
REMARK  status: ('A' for Active; 'I' for Inactive)
REMARK    1  A    between atoms: C_1  and  C_2
REMARK    2  A    between atoms: C_11  and  O_13
REMARK    3  A    between atoms: O_13  and  C_14
REMARK    4  A    between atoms: C_14  and  C_15
REMARK    5  A    between atoms: N_17  and  N_18
REMARK    6  A    between atoms: C_19  and  C_21
REMARK    7  A    between atoms: C_21  and  O_22
REMARK    8  A    between atoms: O_22  and  C_23
REMARK    9  A    between atoms: C_26  and  C_29
REMARK   10  A    between atoms: C_29  and  C_30
REMARK   11  A    between atoms: C_29  and  C_31
REMARK   12  A    between atoms: C_29  and  C_32
REMARK   13  A    between atoms: C_32  and  C_33
REMARK   14  A    between atoms: C_33  and  C_34
REMARK   15  A    between atoms: C_33  and  C_35
REMARK   16  A    between atoms: C_33  and  C_36
REMARK                            x       y       z     vdW  Elec       q    Type
REMARK                         _______ _______ _______ _____ _____    ______ ____
ROOT
ATOM      1  N   UNL     1       2.212   6.649   2.606  0.00  0.00    -0.231 N 
ATOM      2  C   UNL     1       1.379   5.848   1.915  0.00  0.00    +0.267 C 
ATOM      3  O   UNL     1       0.332   6.286   1.486  0.00  0.00    -0.271 OA
ATOM      4  H   UNL     1       3.049   6.299   2.949  0.00  0.00    +0.173 HD
ENDROOT
BRANCH   1   7
ATOM      5  C   UNL     1       2.704   8.791   3.521  0.00  0.00    +0.267 C 
ATOM      6  O   UNL     1       3.751   8.353   3.950  0.00  0.00    -0.271 OA
ATOM      7  N   UNL     1       1.871   7.990   2.830  0.00  0.00    -0.231 N 
ATOM      8  H   UNL     1       1.034   8.340   2.487  0.00  0.00    +0.173 HD
BRANCH   5   9
ATOM      9  C   UNL     1       2.337  10.233   3.762  0.00  0.00    +0.326 C 
BRANCH   9  10
ATOM     10  O   UNL     1       3.373  10.870   4.512  0.00  0.00    -0.483 OA
BRANCH  10  21
ATOM     11  C   UNL     1       1.407  17.016   5.321  0.00  0.00    +0.045 C 
ATOM     12  C   UNL     1       2.640  16.268   5.757  0.00  0.00    -0.033 A 
ATOM     13  C   UNL     1       3.616  16.888   6.470  0.00  0.00    +0.096 A 
ATOM     14  C   UNL     1       4.761  16.166   6.867  0.00  0.00    +0.337 A 
ATOM     15  O   UNL     1       5.628  16.734   7.506  0.00  0.00    -0.245 OA
ATOM     16  O   UNL     1       4.920  14.870   6.558  0.00  0.00    -0.422 OA
ATOM     17  C   UNL     1       3.987  14.194   5.851  0.00  0.00    +0.143 A 
ATOM     18  C   UNL     1       2.820  14.853   5.423  0.00  0.00    +0.021 A 
ATOM     19  C   UNL     1       1.851  14.157   4.692  0.00  0.00    +0.015 A 
ATOM     20  C   UNL     1       2.045  12.840   4.390  0.00  0.00    +0.046 A 
ATOM     21  C   UNL     1       3.197  12.181   4.816  0.00  0.00    +0.125 A 
ATOM     22  C   UNL     1       4.166  12.855   5.541  0.00  0.00    +0.092 A 
ENDBRANCH  10  21
ENDBRANCH   9  10
ENDBRANCH   5   9
ENDBRANCH   1   7
BRANCH   2  23
ATOM     23  C   UNL     1       1.746   4.406   1.674  0.00  0.00    +0.326 C 
BRANCH  23  24
ATOM     24  O   UNL     1       0.710   3.769   0.924  0.00  0.00    -0.483 OA
BRANCH  24  25
ATOM     25  C   UNL     1       0.887   2.456   0.620  0.00  0.00    +0.121 A 
ATOM     26  C   UNL     1      -0.080   1.775  -0.106  0.00  0.00    +0.046 A 
ATOM     27  C   UNL     1       0.102   0.441  -0.414  0.00  0.00    +0.008 A 
ATOM     28  C   UNL     1       1.246  -0.216   0.000  0.00  0.00    -0.041 A 
ATOM     29  C   UNL     1       2.211   0.461   0.724  0.00  0.00    +0.008 A 
ATOM     30  C   UNL     1       2.034   1.795   1.035  0.00  0.00    +0.046 A 
BRANCH  28  31
ATOM     31  C   UNL     1       1.442  -1.671  -0.337  0.00  0.00    -0.009 C 
ATOM     32  C   UNL     1       0.303  -2.493   0.270  0.00  0.00    +0.016 C 
ATOM     33  C   UNL     1       1.444  -1.847  -1.857  0.00  0.00    +0.016 C 
BRANCH  31  34
ATOM     34  C   UNL     1       2.778  -2.152   0.234  0.00  0.00    +0.017 C 
BRANCH  34  35
ATOM     35  C   UNL     1       2.800  -3.682   0.260  0.00  0.00    -0.037 C 
ATOM     36  C   UNL     1       2.228  -4.223  -1.052  0.00  0.00    +0.010 C 
ATOM     37  C   UNL     1       4.242  -4.168   0.426  0.00  0.00    +0.010 C 
ATOM     38  C   UNL     1       1.954  -4.184   1.431  0.00  0.00    +0.010 C 
ENDBRANCH  34  35
ENDBRANCH  31  34
ENDBRANCH  28  31
ENDBRANCH  24  25
ENDBRANCH  23  24
ENDBRANCH   2  23
TORSDOF 10
