REMARK  Name = ZINC09662218
REMARK  7 active torsions:
REMARK  status: ('A' for Active; 'I' for Inactive)
REMARK    1  A    between atoms: C_5  and  C_7
REMARK    2  A    between atoms: C_11  and  S_13
REMARK    3  A    between atoms: S_13  and  C_14
REMARK    4  A    between atoms: C_14  and  C_15
REMARK    5  A    between atoms: N_17  and  C_18
REMARK    6  A    between atoms: C_22  and  S_24
REMARK    7  A    between atoms: S_24  and  N_27
REMARK                            x       y       z     vdW  Elec       q    Type
REMARK                         _______ _______ _______ _____ _____    ______ ____
ROOT
ATOM      1  C   UNL     1      -0.119  -8.342  -0.205  0.00  0.00    +0.227 C 
ATOM      2  O   UNL     1      -1.324  -8.326  -0.346  0.00  0.00    -0.275 OA
ATOM      3  N   UNL     1       0.525  -9.516  -0.051  0.00  0.00    -0.285 N 
ATOM      4  H   UNL     1       1.624  -9.538  -0.010  0.00  0.00    +0.155 HD
ENDROOT
BRANCH   3   5
ATOM      5  C   UNL     1      -0.203 -10.706   0.056  0.00  0.00    +0.035 A 
ATOM      6  C   UNL     1      -1.444 -10.708   0.680  0.00  0.00    +0.023 A 
ATOM      7  C   UNL     1      -2.163 -11.883   0.780  0.00  0.00    +0.004 A 
ATOM      8  C   UNL     1      -1.644 -13.059   0.269  0.00  0.00    +0.028 A 
ATOM      9  C   UNL     1      -0.406 -13.060  -0.348  0.00  0.00    +0.107 A 
ATOM     10  C   UNL     1       0.316 -11.888  -0.456  0.00  0.00    +0.051 A 
BRANCH   9  11
ATOM     11  S   UNL     1       0.251 -14.561  -0.997  0.00  0.00    +0.056 S 
ATOM     12  O   UNL     1      -0.857 -15.412  -1.255  0.00  0.00    -0.153 OA
ATOM     13  O   UNL     1       1.180 -14.194  -2.008  0.00  0.00    -0.153 OA
BRANCH  11  14
ATOM     14  N   UNL     1       1.126 -15.276   0.213  0.00  0.00    -0.204 NA
ATOM     15  H   UNL     1       1.555 -16.221  -0.154  0.00  0.00    +0.144 HD
ATOM     16  H   UNL     1       0.467 -15.481   1.070  0.00  0.00    +0.144 HD
ENDBRANCH  11  14
ENDBRANCH   9  11
ENDBRANCH   3   5
BRANCH   1  17
ATOM     17  C   UNL     1       0.656  -7.050  -0.201  0.00  0.00    +0.173 C 
BRANCH  17  18
ATOM     18  S   UNL     1      -0.486  -5.659  -0.427  0.00  0.00    -0.077 S 
BRANCH  18  23
ATOM     19  C   UNL     1       1.192  -2.167  -0.465  0.00  0.00    +0.183 A 
ATOM     20  N   UNL     1       2.299  -2.924  -0.295  0.00  0.00    -0.152 NA
ATOM     21  H   UNL     1       2.594  -5.070  -0.116  0.00  0.00    +0.191 HD
ATOM     22  N   UNL     1       1.865  -4.258  -0.253  0.00  0.00    -0.253 N 
ATOM     23  C   UNL     1       0.560  -4.241  -0.400  0.00  0.00    +0.185 A 
ATOM     24  N   UNL     1       0.153  -2.976  -0.527  0.00  0.00    -0.201 NA
BRANCH  19  29
ATOM     25  C   UNL     1       2.289   1.424  -0.564  0.00  0.00    +0.001 A 
ATOM     26  C   UNL     1       1.080   2.071  -0.748  0.00  0.00    +0.001 A 
ATOM     27  C   UNL     1      -0.093   1.344  -0.841  0.00  0.00    +0.016 A 
ATOM     28  C   UNL     1      -0.064  -0.034  -0.750  0.00  0.00    +0.029 A 
ATOM     29  C   UNL     1       1.153  -0.692  -0.563  0.00  0.00    +0.035 A 
ATOM     30  C   UNL     1       2.332   0.048  -0.471  0.00  0.00    +0.013 A 
ATOM     31 BR   UNL     1      -1.668  -1.026  -0.877  0.00  0.00    -0.050 Br
ENDBRANCH  19  29
ENDBRANCH  18  23
ENDBRANCH  17  18
ENDBRANCH   1  17
TORSDOF 7
