REMARK  Name = ZINC21322605
REMARK  4 active torsions:
REMARK  status: ('A' for Active; 'I' for Inactive)
REMARK    1  A    between atoms: C_3  and  N_16
REMARK    2  A    between atoms: C_6  and  S_7
REMARK    3  A    between atoms: S_7  and  N_10
REMARK    4  A    between atoms: N_16  and  N_17
REMARK                            x       y       z     vdW  Elec       q    Type
REMARK                         _______ _______ _______ _____ _____    ______ ____
ROOT
ATOM      1  C   UNL     1       0.793  -2.433  -2.778  0.00  0.00    +0.033 A 
ATOM      2  C   UNL     1       1.768  -2.467  -3.759  0.00  0.00    +0.047 A 
ATOM      3  C   UNL     1       1.749  -1.508  -4.766  0.00  0.00    +0.138 A 
ATOM      4  N   UNL     1       0.810  -0.573  -4.788  0.00  0.00    -0.237 NA
ATOM      5  C   UNL     1      -0.134  -0.519  -3.868  0.00  0.00    +0.141 A 
ATOM      6  C   UNL     1      -0.172  -1.437  -2.837  0.00  0.00    +0.124 A 
ENDROOT
BRANCH   6   7
ATOM      7  S   UNL     1      -1.436  -1.349  -1.613  0.00  0.00    +0.062 S 
ATOM      8  O   UNL     1      -1.567  -2.655  -1.069  0.00  0.00    -0.153 OA
ATOM      9  O   UNL     1      -2.527  -0.657  -2.205  0.00  0.00    -0.153 OA
BRANCH   7  10
ATOM     10  N   UNL     1      -0.870  -0.383  -0.393  0.00  0.00    -0.177 NA
ATOM     11  C   UNL     1      -1.101   1.068  -0.418  0.00  0.00    +0.109 C 
ATOM     12  C   UNL     1       0.244   1.784  -0.263  0.00  0.00    +0.017 C 
ATOM     13  C   UNL     1       0.943   1.281   1.002  0.00  0.00    +0.003 C 
ATOM     14  C   UNL     1       1.208  -0.221   0.877  0.00  0.00    +0.017 C 
ATOM     15  C   UNL     1      -0.127  -0.961   0.736  0.00  0.00    +0.109 C 
ENDBRANCH   7  10
ENDBRANCH   6   7
BRANCH   3  16
ATOM     16  N   UNL     1       2.722  -1.530  -5.758  0.00  0.00    -0.221 N 
ATOM     17  H   UNL     1       3.503  -2.304  -5.744  0.00  0.00    +0.176 HD
BRANCH  16  18
ATOM     18  N   UNL     1       2.708  -0.567  -6.775  0.00  0.00    -0.190 NA
ATOM     19  C   UNL     1       3.541  -0.647  -7.744  0.00  0.00    +0.037 C 
ATOM     20  C   UNL     1       4.461  -1.857  -7.871  0.00  0.00    +0.052 C 
ATOM     21  C   UNL     1       4.607  -2.273  -9.314  0.00  0.00    +0.006 C 
ATOM     22  C   UNL     1       5.788  -1.528  -9.952  0.00  0.00    +0.000 C 
ATOM     23  C   UNL     1       5.440  -0.165 -10.363  0.00  0.00    +0.000 C 
ATOM     24  C   UNL     1       5.055   0.731  -9.177  0.00  0.00    +0.006 C 
ATOM     25  C   UNL     1       3.627   0.470  -8.780  0.00  0.00    +0.052 C 
ENDBRANCH  16  18
ENDBRANCH   3  16
TORSDOF 4
