REMARK  Name = ZINC19333682
REMARK  6 active torsions:
REMARK  status: ('A' for Active; 'I' for Inactive)
REMARK    1  A    between atoms: C_6  and  C_7
REMARK    2  A    between atoms: C_7  and  N_8
REMARK    3  A    between atoms: N_8  and  C_9
REMARK    4  A    between atoms: N_8  and  C_15
REMARK    5  A    between atoms: C_9  and  C_10
REMARK    6  A    between atoms: C_20  and  C_22
REMARK                            x       y       z     vdW  Elec       q    Type
REMARK                         _______ _______ _______ _____ _____    ______ ____
ROOT
ATOM      1  N   UNL     1      -0.962   0.278  -1.814  0.00  0.00    -0.288 NA
ENDROOT
BRANCH   1   2
ATOM      2  C   UNL     1      -0.642   1.294  -0.802  0.00  0.00    +0.092 C 
ATOM      3  C   UNL     1       0.490   2.219  -1.302  0.00  0.00    +0.179 C 
ATOM      4  O   UNL     1       1.701   1.644  -0.766  0.00  0.00    -0.378 OA
ATOM      5  C   UNL     1       1.365   1.234   0.578  0.00  0.00    +0.169 C 
ATOM      6  C   UNL     1      -0.053   0.631   0.464  0.00  0.00    +0.064 C 
BRANCH   6   7
ATOM      7  C   UNL     1      -0.875   0.980   1.677  0.00  0.00    -0.040 A 
ATOM      8  C   UNL     1      -1.054   2.304   2.033  0.00  0.00    +0.007 A 
ATOM      9  C   UNL     1      -1.812   2.626   3.143  0.00  0.00    +0.038 A 
ATOM     10  C   UNL     1      -2.382   1.621   3.906  0.00  0.00    +0.123 A 
ATOM     11  C   UNL     1      -2.197   0.295   3.552  0.00  0.00    +0.038 A 
ATOM     12  C   UNL     1      -1.444  -0.024   2.438  0.00  0.00    +0.007 A 
ATOM     13  F   UNL     1      -3.119   1.934   4.994  0.00  0.00    -0.205 F 
ENDBRANCH   6   7
ENDBRANCH   1   2
BRANCH   1  14
ATOM     14  C   UNL     1      -1.631   0.883  -2.973  0.00  0.00    +0.120 C 
BRANCH  14  20
ATOM     15  C   UNL     1      -4.046   0.286  -2.696  0.00  0.00    +0.008 A 
ATOM     16  C   UNL     1      -5.345   0.610  -2.353  0.00  0.00    +0.038 A 
ATOM     17  C   UNL     1      -5.650   1.893  -1.931  0.00  0.00    +0.123 A 
ATOM     18  C   UNL     1      -4.651   2.849  -1.847  0.00  0.00    +0.038 A 
ATOM     19  C   UNL     1      -3.351   2.521  -2.184  0.00  0.00    +0.008 A 
ATOM     20  C   UNL     1      -3.049   1.239  -2.606  0.00  0.00    -0.033 A 
ATOM     21  F   UNL     1      -6.920   2.213  -1.603  0.00  0.00    -0.205 F 
ENDBRANCH  14  20
ENDBRANCH   1  14
BRANCH   1  22
ATOM     22  C   UNL     1       0.244  -0.454  -2.224  0.00  0.00    +0.120 C 
BRANCH  22  23
ATOM     23  C   UNL     1      -0.156  -1.720  -2.937  0.00  0.00    -0.026 A 
ATOM     24  C   UNL     1      -0.223  -1.758  -4.317  0.00  0.00    +0.012 A 
ATOM     25  C   UNL     1      -0.586  -2.913  -4.926  0.00  0.00    +0.045 A 
ATOM     26  S   UNL     1      -0.846  -3.999  -3.533  0.00  0.00    -0.105 S 
ATOM     27  C   UNL     1      -0.449  -2.841  -2.233  0.00  0.00    +0.050 A 
ENDBRANCH  22  23
ENDBRANCH   1  22
TORSDOF 6
