REMARK  Name = ZINC04925529
REMARK  8 active torsions:
REMARK  status: ('A' for Active; 'I' for Inactive)
REMARK    1  A    between atoms: C_1  and  C_2
REMARK    2  A    between atoms: C_2  and  C_3
REMARK    3  A    between atoms: N_7  and  N_8
REMARK    4  A    between atoms: C_9  and  C_11
REMARK    5  A    between atoms: C_11  and  S_12
REMARK    6  A    between atoms: S_12  and  C_13
REMARK    7  A    between atoms: C_15  and  C_21
REMARK    8  A    between atoms: C_18  and  C_19
REMARK                            x       y       z     vdW  Elec       q    Type
REMARK                         _______ _______ _______ _____ _____    ______ ____
ROOT
ATOM      1  N   UNL     1      -1.196  -0.722   0.115  0.00  0.00    -0.206 N 
ATOM      2  C   UNL     1      -1.170  -2.066   0.209  0.00  0.00    +0.242 C 
ATOM      3  O   UNL     1      -0.110  -2.654   0.196  0.00  0.00    -0.273 OA
ATOM      4  H   UNL     1      -2.044  -0.251   0.126  0.00  0.00    +0.177 HD
ENDROOT
BRANCH   1   9
ATOM      5  C   UNL     1       0.026   3.755  -1.561  0.00  0.00    -0.011 C 
ATOM      6  C   UNL     1       1.305   2.924  -1.446  0.00  0.00    +0.009 C 
ATOM      7  C   UNL     1       1.248   2.077  -0.170  0.00  0.00    +0.053 C 
ATOM      8  C   UNL     1      -0.025   1.261  -0.191  0.00  0.00    +0.037 C 
ATOM      9  N   UNL     1       0.002  -0.004   0.002  0.00  0.00    -0.189 NA
ATOM     10  C   UNL     1      -1.332   1.978  -0.452  0.00  0.00    +0.053 C 
ATOM     11  C   UNL     1      -1.182   2.830  -1.711  0.00  0.00    +0.009 C 
BRANCH   5  13
ATOM     12  C   UNL     1      -1.100   5.589  -2.830  0.00  0.00    +0.004 C 
ATOM     13  C   UNL     1       0.122   4.669  -2.784  0.00  0.00    +0.000 C 
ENDBRANCH   5  13
ENDBRANCH   1   9
BRANCH   2  14
ATOM     14  C   UNL     1      -2.459  -2.837   0.331  0.00  0.00    +0.171 C 
BRANCH  14  15
ATOM     15  S   UNL     1      -2.094  -4.611   0.438  0.00  0.00    -0.116 S 
BRANCH  15  16
ATOM     16  C   UNL     1      -3.680  -5.365   0.574  0.00  0.00    +0.012 A 
ATOM     17  C   UNL     1      -4.826  -4.580   0.584  0.00  0.00    +0.019 A 
ATOM     18  C   UNL     1      -6.068  -5.174   0.685  0.00  0.00    -0.035 A 
ATOM     19  C   UNL     1      -6.172  -6.550   0.788  0.00  0.00    +0.021 A 
ATOM     20  C   UNL     1      -5.032  -7.335   0.785  0.00  0.00    +0.020 A 
ATOM     21  C   UNL     1      -3.788  -6.747   0.678  0.00  0.00    -0.036 A 
ATOM     22  C   UNL     1      -2.547  -7.602   0.674  0.00  0.00    +0.045 C 
ATOM     23 BR   UNL     1      -7.875  -7.360   0.935  0.00  0.00    -0.050 Br
ATOM     24  C   UNL     1      -7.312  -4.323   0.689  0.00  0.00    +0.045 C 
ENDBRANCH  15  16
ENDBRANCH  14  15
ENDBRANCH   2  14
TORSDOF 5
