REMARK  Name = ZINC49247405
REMARK  5 active torsions:
REMARK  status: ('A' for Active; 'I' for Inactive)
REMARK    1  A    between atoms: C_1  and  N_2
REMARK    2  A    between atoms: N_2  and  C_3
REMARK    3  A    between atoms: N_2  and  N_9
REMARK    4  A    between atoms: N_12  and  C_13
REMARK    5  A    between atoms: C_13  and  C_14
REMARK                            x       y       z     vdW  Elec       q    Type
REMARK                         _______ _______ _______ _____ _____    ______ ____
ROOT
ATOM      1  N   UNL     1       0.000  -0.698  -1.215  0.00  0.00    -0.218 N 
ATOM      2  C   UNL     1       1.121  -0.754  -1.961  0.00  0.00    +0.316 C 
ATOM      3  O   UNL     1       1.119  -1.356  -3.017  0.00  0.00    -0.251 OA
ATOM      4  N   UNL     1       2.245  -0.142  -1.536  0.00  0.00    -0.294 N 
ATOM      5  H   UNL     1      -0.808  -1.138  -1.521  0.00  0.00    +0.175 HD
ATOM      6  H   UNL     1       2.246   0.338  -0.693  0.00  0.00    +0.151 HD
ENDROOT
BRANCH   1   8
ATOM      7  C   UNL     1      -0.018   1.461   0.010  0.00  0.00    +0.154 C 
ATOM      8  N   UNL     1       0.002  -0.004   0.002  0.00  0.00    -0.253 N 
BRANCH   8   9
ATOM      9  C   UNL     1       0.023  -0.709   1.208  0.00  0.00    +0.047 A 
ATOM     10  C   UNL     1       0.048  -2.098   1.202  0.00  0.00    +0.025 A 
ATOM     11  C   UNL     1       0.068  -2.792   2.396  0.00  0.00    +0.002 A 
ATOM     12  C   UNL     1       0.064  -2.105   3.596  0.00  0.00    +0.000 A 
ATOM     13  C   UNL     1       0.039  -0.723   3.606  0.00  0.00    +0.002 A 
ATOM     14  C   UNL     1       0.025  -0.022   2.415  0.00  0.00    +0.025 A 
ENDBRANCH   8   9
ENDBRANCH   1   8
BRANCH   4  15
ATOM     15  C   UNL     1       3.463  -0.203  -2.346  0.00  0.00    +0.148 C 
BRANCH  15  16
ATOM     16  C   UNL     1       4.566   0.554  -1.653  0.00  0.00    +0.008 A 
ATOM     17  C   UNL     1       5.483   0.102  -0.763  0.00  0.00    +0.014 A 
ATOM     18  C   UNL     1       6.413   0.988  -0.250  0.00  0.00    +0.023 A 
ATOM     19  C   UNL     1       6.379   2.283  -0.652  0.00  0.00    +0.055 A 
ATOM     20  S   UNL     1       5.008   2.278  -1.796  0.00  0.00    -0.085 S 
ATOM     21 BR   UNL     1       7.498   3.718  -0.141  0.00  0.00    -0.043 Br
ENDBRANCH  15  16
ENDBRANCH   4  15
TORSDOF 4
