REMARK  Name = ZINC00929750
REMARK  7 active torsions:
REMARK  status: ('A' for Active; 'I' for Inactive)
REMARK    1  A    between atoms: C_1  and  C_2
REMARK    2  A    between atoms: C_4  and  C_28
REMARK    3  A    between atoms: C_9  and  C_27
REMARK    4  A    between atoms: C_12  and  S_15
REMARK    5  A    between atoms: S_15  and  C_16
REMARK    6  A    between atoms: C_16  and  C_17
REMARK    7  A    between atoms: C_24  and  C_26
REMARK                            x       y       z     vdW  Elec       q    Type
REMARK                         _______ _______ _______ _____ _____    ______ ____
ROOT
ATOM      1  C   UNL     1     -10.960   7.090  -3.872  0.00  0.00    +0.044 C 
ATOM      2  C   UNL     1      -9.706   6.275  -4.053  0.00  0.00    -0.050 A 
ATOM      3  C   UNL     1      -9.523   5.108  -3.332  0.00  0.00    +0.008 A 
ATOM      4  C   UNL     1      -8.335   4.402  -3.409  0.00  0.00    -0.026 A 
ATOM      5  C   UNL     1      -7.286   4.889  -4.174  0.00  0.00    +0.061 A 
ATOM      6  C   UNL     1      -7.580   5.921  -5.093  0.00  0.00    -0.000 A 
ATOM      7  C   UNL     1      -8.737   6.689  -4.940  0.00  0.00    +0.013 A 
ATOM      8  C   UNL     1      -6.654   6.183  -6.198  0.00  0.00    +0.017 A 
ATOM      9  C   UNL     1      -5.562   5.398  -6.324  0.00  0.00    -0.005 A 
ATOM     10  C   UNL     1      -5.225   4.485  -5.298  0.00  0.00    +0.165 A 
ATOM     11  N   UNL     1      -6.005   4.369  -4.160  0.00  0.00    -0.270 N 
ATOM     12  C   UNL     1      -5.224   3.686  -3.279  0.00  0.00    +0.197 A 
ATOM     13  N   UNL     1      -4.182   3.226  -3.947  0.00  0.00    -0.122 NA
ATOM     14  N   UNL     1      -4.182   3.694  -5.139  0.00  0.00    -0.128 NA
ATOM     15  C   UNL     1      -4.702   5.495  -7.558  0.00  0.00    +0.047 C 
ATOM     16  C   UNL     1      -8.245   3.092  -2.670  0.00  0.00    +0.046 C 
ENDROOT
BRANCH  12  17
ATOM     17  S   UNL     1      -5.515   3.400  -1.565  0.00  0.00    -0.076 S 
BRANCH  17  18
ATOM     18  C   UNL     1      -4.039   2.438  -1.151  0.00  0.00    +0.173 C 
BRANCH  18  19
ATOM     19  C   UNL     1      -4.072   2.070   0.310  0.00  0.00    +0.226 C 
ATOM     20  O   UNL     1      -5.001   2.424   1.003  0.00  0.00    -0.275 OA
ATOM     21  N   UNL     1      -3.068   1.348   0.846  0.00  0.00    -0.298 N 
ATOM     22  C   UNL     1      -2.005   0.797  -0.006  0.00  0.00    +0.108 C 
ATOM     23  C   UNL     1      -0.648   1.244   0.548  0.00  0.00    +0.019 C 
ATOM     24  C   UNL     1      -0.545   0.842   2.021  0.00  0.00    +0.003 C 
ATOM     25  C   UNL     1      -1.647   1.541   2.820  0.00  0.00    +0.022 C 
ATOM     26  C   UNL     1      -3.015   1.098   2.292  0.00  0.00    +0.073 C 
ATOM     27  C   UNL     1      -4.118   1.895   2.991  0.00  0.00    +0.028 C 
ENDBRANCH  18  19
ENDBRANCH  17  18
ENDBRANCH  12  17
TORSDOF 3
