REMARK  Name = ZINC63478693
REMARK  10 active torsions:
REMARK  status: ('A' for Active; 'I' for Inactive)
REMARK    1  A    between atoms: C_1  and  C_2
REMARK    2  A    between atoms: C_5  and  N_9
REMARK    3  A    between atoms: C_10  and  S_15
REMARK    4  A    between atoms: S_15  and  C_16
REMARK    5  A    between atoms: C_16  and  C_17
REMARK    6  A    between atoms: N_19  and  C_20
REMARK    7  A    between atoms: C_20  and  C_21
REMARK    8  A    between atoms: C_21  and  C_22
REMARK    9  A    between atoms: C_26  and  O_31
REMARK   10  A    between atoms: O_31  and  C_32
REMARK                            x       y       z     vdW  Elec       q    Type
REMARK                         _______ _______ _______ _____ _____    ______ ____
ROOT
ATOM      1  C   UNL     1      -4.097  -5.074   1.736  0.00  0.00    +0.223 C 
ATOM      2  O   UNL     1      -4.117  -4.726   2.898  0.00  0.00    -0.275 OA
ATOM      3  N   UNL     1      -5.252  -5.321   1.087  0.00  0.00    -0.314 N 
ATOM      4  H   UNL     1      -5.236  -5.599   0.157  0.00  0.00    +0.149 HD
ENDROOT
BRANCH   1   5
ATOM      5  C   UNL     1      -2.780  -5.230   1.019  0.00  0.00    +0.168 C 
BRANCH   5   6
ATOM      6  S   UNL     1      -1.423  -4.829   2.153  0.00  0.00    -0.107 S 
BRANCH   6   8
ATOM      7  N   UNL     1       0.059  -4.167  -0.022  0.00  0.00    -0.174 N 
ATOM      8  C   UNL     1       0.071  -5.064   1.149  0.00  0.00    +0.260 C 
ATOM      9  N   UNL     1       0.087  -6.405   0.537  0.00  0.00    -0.218 N 
ATOM     10  N   UNL     1       0.084  -6.195  -0.847  0.00  0.00    -0.063 NA
ATOM     11  N   UNL     1       0.063  -5.004  -1.144  0.00  0.00    -0.056 NA
ATOM     12  H   UNL     1       0.099  -7.259   0.999  0.00  0.00    +0.173 HD
BRANCH   7  17
ATOM     13  C   UNL     1      -0.018   1.503   0.010  0.00  0.00    +0.045 C 
ATOM     14  C   UNL     1       0.002  -0.004   0.002  0.00  0.00    -0.032 A 
ATOM     15  C   UNL     1       0.006  -0.687  -1.200  0.00  0.00    +0.006 A 
ATOM     16  C   UNL     1       0.025  -2.068  -1.212  0.00  0.00    +0.025 A 
ATOM     17  C   UNL     1       0.040  -2.772  -0.013  0.00  0.00    +0.058 A 
ATOM     18  C   UNL     1       0.037  -2.083   1.193  0.00  0.00    +0.045 A 
ATOM     19  C   UNL     1       0.023  -0.701   1.198  0.00  0.00    +0.046 A 
ATOM     20 CL   UNL     1       0.025   0.162   2.704  0.00  0.00    -0.083 Cl
ENDBRANCH   7  17
ENDBRANCH   6   8
ENDBRANCH   5   6
ENDBRANCH   1   5
BRANCH   3  21
ATOM     21  C   UNL     1      -6.531  -5.168   1.784  0.00  0.00    +0.108 C 
BRANCH  21  22
ATOM     22  C   UNL     1      -7.676  -5.507   0.827  0.00  0.00    +0.052 C 
BRANCH  22  23
ATOM     23  C   UNL     1      -8.992  -5.351   1.544  0.00  0.00    -0.040 C 
ATOM     24  C   UNL     1      -9.796  -4.264   1.539  0.00  0.00    -0.001 A 
ATOM     25  C   UNL     1      -9.687  -2.952   0.887  0.00  0.00    +0.013 A 
ATOM     26  C   UNL     1     -10.670  -2.045   1.069  0.00  0.00    +0.046 A 
ATOM     27  C   UNL     1     -11.795  -2.326   1.868  0.00  0.00    +0.122 A 
ATOM     28  C   UNL     1     -11.962  -3.515   2.500  0.00  0.00    +0.071 A 
ATOM     29  C   UNL     1     -10.988  -4.537   2.374  0.00  0.00    +0.046 A 
ATOM     30  N   UNL     1     -10.922  -5.748   2.877  0.00  0.00    -0.380 N 
ATOM     31  C   UNL     1      -9.683  -6.380   2.410  0.00  0.00    +0.144 C 
ATOM     32  H   UNL     1     -11.584  -6.157   3.456  0.00  0.00    +0.160 HD
BRANCH  27  33
ATOM     33  O   UNL     1     -12.747  -1.371   2.012  0.00  0.00    -0.495 OA
ATOM     34  C   UNL     1     -12.533  -0.134   1.331  0.00  0.00    +0.277 C 
ENDBRANCH  27  33
ENDBRANCH  22  23
ENDBRANCH  21  22
ENDBRANCH   3  21
TORSDOF 8
