REMARK  Name = ZINC14980608
REMARK  10 active torsions:
REMARK  status: ('A' for Active; 'I' for Inactive)
REMARK    1  A    between atoms: C_1  and  C_2
REMARK    2  A    between atoms: C_9  and  C_25
REMARK    3  A    between atoms: C_10  and  N_12
REMARK    4  A    between atoms: N_15  and  C_18
REMARK    5  A    between atoms: C_25  and  N_26
REMARK    6  A    between atoms: N_26  and  C_27
REMARK    7  A    between atoms: C_27  and  C_29
REMARK    8  A    between atoms: C_27  and  C_30
REMARK    9  A    between atoms: C_30  and  O_31
REMARK   10  A    between atoms: O_31  and  C_32
REMARK                            x       y       z     vdW  Elec       q    Type
REMARK                         _______ _______ _______ _____ _____    ______ ____
ROOT
ATOM      1  C   UNL     1     -12.142  -3.068  -0.471  0.00  0.00    +0.044 C 
ATOM      2  C   UNL     1     -10.783  -2.428  -0.353  0.00  0.00    -0.050 A 
ATOM      3  C   UNL     1     -10.446  -1.740   0.810  0.00  0.00    +0.005 A 
ATOM      4  C   UNL     1      -9.226  -1.152   0.949  0.00  0.00    +0.028 A 
ATOM      5  C   UNL     1      -8.289  -1.234  -0.095  0.00  0.00    +0.073 A 
ATOM      6  C   UNL     1      -8.635  -1.933  -1.278  0.00  0.00    +0.001 A 
ATOM      7  C   UNL     1      -9.901  -2.529  -1.386  0.00  0.00    +0.013 A 
ATOM      8  C   UNL     1      -7.695  -2.016  -2.325  0.00  0.00    +0.015 A 
ATOM      9  C   UNL     1      -6.486  -1.410  -2.158  0.00  0.00    -0.024 A 
ATOM     10  C   UNL     1      -6.202  -0.737  -0.962  0.00  0.00    +0.123 A 
ATOM     11  N   UNL     1      -7.084  -0.663   0.014  0.00  0.00    -0.232 NA
ENDROOT
BRANCH  10  12
ATOM     12  N   UNL     1      -4.965  -0.130  -0.804  0.00  0.00    -0.312 N 
ATOM     13  C   UNL     1      -5.101   1.332  -0.732  0.00  0.00    +0.125 C 
ATOM     14  C   UNL     1      -3.712   1.967  -0.639  0.00  0.00    +0.124 C 
ATOM     15  N   UNL     1      -3.018   1.447   0.547  0.00  0.00    -0.327 N 
ATOM     16  C   UNL     1      -2.881  -0.015   0.476  0.00  0.00    +0.124 C 
ATOM     17  C   UNL     1      -4.271  -0.650   0.382  0.00  0.00    +0.125 C 
BRANCH  15  18
ATOM     18  C   UNL     1      -1.772   2.058   0.706  0.00  0.00    +0.031 A 
ATOM     19  C   UNL     1      -0.954   1.705   1.772  0.00  0.00    +0.023 A 
ATOM     20  C   UNL     1       0.280   2.307   1.924  0.00  0.00    +0.003 A 
ATOM     21  C   UNL     1       0.700   3.265   1.019  0.00  0.00    +0.020 A 
ATOM     22  C   UNL     1      -0.114   3.623  -0.042  0.00  0.00    +0.043 A 
ATOM     23  C   UNL     1      -1.351   3.025  -0.198  0.00  0.00    +0.043 A 
ATOM     24 CL   UNL     1       0.417   4.825  -1.176  0.00  0.00    -0.083 Cl
ENDBRANCH  15  18
ENDBRANCH  10  12
BRANCH   9  25
ATOM     25  C   UNL     1      -5.455  -1.469  -3.255  0.00  0.00    -0.043 C 
BRANCH  25  26
ATOM     26  N   UNL     1      -4.443  -2.481  -2.922  0.00  0.00    +0.385 N 
ATOM     27  H   UNL     1      -3.964  -2.220  -1.967  0.00  0.00    -0.085 HD
ATOM     28  H   UNL     1      -4.925  -3.466  -2.834  0.00  0.00    -0.085 HD
BRANCH  26  29
ATOM     29  C   UNL     1      -3.409  -2.554  -3.963  0.00  0.00    -0.048 C 
ATOM     30  C   UNL     1      -2.340  -1.492  -3.696  0.00  0.00    -0.011 C 
BRANCH  29  31
ATOM     31  C   UNL     1      -2.765  -3.942  -3.945  0.00  0.00    +0.143 C 
BRANCH  31  32
ATOM     32  O   UNL     1      -2.071  -4.129  -2.710  0.00  0.00    -0.385 OA
ATOM     33  C   UNL     1      -1.431  -5.401  -2.591  0.00  0.00    +0.193 C 
ENDBRANCH  31  32
ENDBRANCH  29  31
ENDBRANCH  26  29
ENDBRANCH  25  26
ENDBRANCH   9  25
TORSDOF 7
