REMARK  Name = ZINC02743181
REMARK  11 active torsions:
REMARK  status: ('A' for Active; 'I' for Inactive)
REMARK    1  A    between atoms: C_1  and  C_2
REMARK    2  A    between atoms: C_2  and  C_3
REMARK    3  A    between atoms: C_3  and  C_5
REMARK    4  A    between atoms: C_3  and  N_19
REMARK    5  A    between atoms: N_7  and  N_8
REMARK    6  A    between atoms: C_9  and  C_10
REMARK    7  A    between atoms: C_14  and  O_17
REMARK    8  A    between atoms: C_15  and  O_16
REMARK    9  A    between atoms: O_17  and  C_18
REMARK   10  A    between atoms: N_19  and  C_20
REMARK   11  A    between atoms: C_25  and  C_26
REMARK                            x       y       z     vdW  Elec       q    Type
REMARK                         _______ _______ _______ _____ _____    ______ ____
ROOT
ATOM      1  C   UNL     1      -0.722   1.732   1.183  0.00  0.00    +0.252 C 
ATOM      2  O   UNL     1      -1.685   2.445   0.995  0.00  0.00    -0.272 OA
ATOM      3  N   UNL     1      -0.279   1.514   2.437  0.00  0.00    -0.205 N 
ATOM      4  H   UNL     1       0.492   0.944   2.587  0.00  0.00    +0.177 HD
ENDROOT
BRANCH   3   5
ATOM      5  N   UNL     1      -0.931   2.110   3.524  0.00  0.00    -0.188 NA
ATOM      6  C   UNL     1      -0.504   1.900   4.731  0.00  0.00    +0.142 C 
BRANCH   6   7
ATOM      7  C   UNL     1      -1.190   2.527   5.875  0.00  0.00    +0.040 A 
ATOM      8  C   UNL     1      -0.734   2.303   7.177  0.00  0.00    +0.013 A 
ATOM      9  C   UNL     1      -1.379   2.892   8.244  0.00  0.00    +0.004 A 
ATOM     10  C   UNL     1      -2.478   3.706   8.034  0.00  0.00    +0.049 A 
ATOM     11  C   UNL     1      -2.942   3.937   6.748  0.00  0.00    +0.162 A 
ATOM     12  C   UNL     1      -2.299   3.355   5.662  0.00  0.00    +0.167 A 
BRANCH  12  13
ATOM     13  O   UNL     1      -2.748   3.583   4.400  0.00  0.00    -0.503 OA
ATOM     14  H   UNL     1      -3.413   2.950   4.098  0.00  0.00    +0.292 HD
ENDBRANCH  12  13
BRANCH  11  15
ATOM     15  O   UNL     1      -4.023   4.738   6.549  0.00  0.00    -0.491 OA
ATOM     16  C   UNL     1      -4.631   5.308   7.710  0.00  0.00    +0.277 C 
ENDBRANCH  11  15
ENDBRANCH   6   7
ENDBRANCH   3   5
BRANCH   1  17
ATOM     17  C   UNL     1      -0.020   1.091   0.013  0.00  0.00    +0.158 C 
BRANCH  17  19
ATOM     18  C   UNL     1       2.184   0.803  -1.128  0.00  0.00    +0.006 C 
ATOM     19  C   UNL     1       1.438   1.554  -0.024  0.00  0.00    +0.028 C 
ENDBRANCH  17  19
BRANCH  17  20
ATOM     20  N   UNL     1      -0.688   1.480  -1.231  0.00  0.00    -0.333 N 
ATOM     21  H   UNL     1      -0.339   2.215  -1.759  0.00  0.00    +0.147 HD
BRANCH  20  22
ATOM     22  C   UNL     1      -1.827   0.793  -1.657  0.00  0.00    +0.031 A 
ATOM     23  C   UNL     1      -2.260  -0.332  -0.966  0.00  0.00    +0.024 A 
ATOM     24  C   UNL     1      -3.390  -1.006  -1.387  0.00  0.00    +0.016 A 
ATOM     25  C   UNL     1      -4.085  -0.567  -2.500  0.00  0.00    +0.014 A 
ATOM     26  C   UNL     1      -3.653   0.549  -3.192  0.00  0.00    +0.019 A 
ATOM     27  C   UNL     1      -2.527   1.231  -2.774  0.00  0.00    -0.029 A 
ATOM     28  C   UNL     1      -2.058   2.448  -3.529  0.00  0.00    +0.045 C 
ATOM     29  I   UNL     1      -5.794  -1.597  -3.138  0.00  0.00    -0.044 I 
ENDBRANCH  20  22
ENDBRANCH  17  20
ENDBRANCH   1  17
TORSDOF 8
