REMARK  Name = ZINC35693887
REMARK  10 active torsions:
REMARK  status: ('A' for Active; 'I' for Inactive)
REMARK    1  A    between atoms: C_1  and  C_2
REMARK    2  A    between atoms: C_6  and  C_8
REMARK    3  A    between atoms: C_10  and  C_30
REMARK    4  A    between atoms: C_11  and  C_29
REMARK    5  A    between atoms: C_15  and  C_18
REMARK    6  A    between atoms: C_19  and  N_21
REMARK    7  A    between atoms: N_21  and  C_22
REMARK    8  A    between atoms: C_22  and  C_23
REMARK    9  A    between atoms: C_30  and  O_32
REMARK   10  A    between atoms: O_32  and  C_33
REMARK                            x       y       z     vdW  Elec       q    Type
REMARK                         _______ _______ _______ _____ _____    ______ ____
ROOT
ATOM      1  C   UNL     1      -0.287  -3.175   2.230  0.00  0.00    +0.150 C 
ATOM      2  C   UNL     1      -1.389  -4.050   2.784  0.00  0.00    +0.082 C 
ATOM      3  C   UNL     1      -1.062  -5.342   3.150  0.00  0.00    +0.053 C 
ATOM      4  N   UNL     1       0.177  -5.784   3.015  0.00  0.00    -0.230 NA
ATOM      5  C   UNL     1       1.181  -5.075   2.541  0.00  0.00    +0.166 C 
ATOM      6  N   UNL     1       1.068  -3.779   2.123  0.00  0.00    -0.267 N 
ATOM      7  C   UNL     1       2.214  -3.172   1.651  0.00  0.00    +0.048 C 
ATOM      8  C   UNL     1       3.351  -3.902   1.637  0.00  0.00    +0.072 C 
ATOM      9  S   UNL     1       2.796  -5.459   2.298  0.00  0.00    -0.060 S 
ATOM     10  C   UNL     1      -2.126  -6.253   3.707  0.00  0.00    +0.066 C 
ENDROOT
BRANCH   1  16
ATOM     11  C   UNL     1      -2.182   0.342  -0.785  0.00  0.00    +0.044 C 
ATOM     12  C   UNL     1      -1.609  -1.038  -0.588  0.00  0.00    -0.050 A 
ATOM     13  C   UNL     1      -1.466  -1.888  -1.669  0.00  0.00    +0.003 A 
ATOM     14  C   UNL     1      -0.941  -3.154  -1.488  0.00  0.00    +0.001 A 
ATOM     15  C   UNL     1      -0.559  -3.570  -0.226  0.00  0.00    +0.006 A 
ATOM     16  C   UNL     1      -0.702  -2.720   0.855  0.00  0.00    -0.022 A 
ATOM     17  C   UNL     1      -1.223  -1.453   0.673  0.00  0.00    +0.009 A 
ENDBRANCH   1  16
BRANCH   7  18
ATOM     18  C   UNL     1       2.198  -1.780   1.178  0.00  0.00    +0.091 C 
ATOM     19  C   UNL     1       3.284  -1.262   0.571  0.00  0.00    +0.239 C 
ATOM     20  O   UNL     1       4.333  -2.062   0.262  0.00  0.00    -0.271 OA
BRANCH  19  21
ATOM     21  N   UNL     1       3.327   0.087   0.263  0.00  0.00    -0.308 N 
ATOM     22  H   UNL     1       2.608   0.673   0.547  0.00  0.00    +0.149 HD
BRANCH  21  23
ATOM     23  C   UNL     1       4.459   0.629  -0.493  0.00  0.00    +0.140 C 
BRANCH  23  24
ATOM     24  C   UNL     1       4.325   2.127  -0.592  0.00  0.00    -0.027 A 
ATOM     25  C   UNL     1       3.640   2.710  -1.647  0.00  0.00    +0.025 A 
ATOM     26  C   UNL     1       3.538   4.087  -1.705  0.00  0.00    +0.111 A 
ATOM     27  N   UNL     1       4.082   4.844  -0.772  0.00  0.00    -0.263 NA
ATOM     28  C   UNL     1       4.741   4.324   0.245  0.00  0.00    +0.111 A 
ATOM     29  C   UNL     1       4.879   2.955   0.373  0.00  0.00    +0.025 A 
ENDBRANCH  23  24
ENDBRANCH  21  23
ENDBRANCH  19  21
ENDBRANCH   7  18
BRANCH   2  30
ATOM     30  C   UNL     1      -2.696  -3.567   2.922  0.00  0.00    +0.339 C 
ATOM     31  O   UNL     1      -3.591  -4.322   3.259  0.00  0.00    -0.245 OA
BRANCH  30  32
ATOM     32  O   UNL     1      -2.964  -2.265   2.681  0.00  0.00    -0.465 OA
ATOM     33  C   UNL     1      -4.319  -1.841   2.841  0.00  0.00    +0.280 C 
ENDBRANCH  30  32
ENDBRANCH   2  30
TORSDOF 7
