REMARK  Name = ZINC36548342
REMARK  15 active torsions:
REMARK  status: ('A' for Active; 'I' for Inactive)
REMARK    1  A    between atoms: C_1  and  C_2
REMARK    2  A    between atoms: C_5  and  C_9
REMARK    3  A    between atoms: C_6  and  C_8
REMARK    4  A    between atoms: C_9  and  C_11
REMARK    5  A    between atoms: C_9  and  N_22
REMARK    6  A    between atoms: N_13  and  C_14
REMARK    7  A    between atoms: C_14  and  C_15
REMARK    8  A    between atoms: C_14  and  C_16
REMARK    9  A    between atoms: C_14  and  C_17
REMARK   10  A    between atoms: C_17  and  C_18
REMARK   11  A    between atoms: C_18  and  C_19
REMARK   12  A    between atoms: C_18  and  C_20
REMARK   13  A    between atoms: C_18  and  C_21
REMARK   14  A    between atoms: N_22  and  C_23
REMARK   15  A    between atoms: C_30  and  C_32
REMARK                            x       y       z     vdW  Elec       q    Type
REMARK                         _______ _______ _______ _____ _____    ______ ____
ROOT
ATOM      1  C   UNL     1      -0.655  -4.785   0.736  0.00  0.00    +0.197 C 
ENDROOT
BRANCH   1   6
ATOM      2  C   UNL     1       2.253  -0.218   2.757  0.00  0.00    +0.044 C 
ATOM      3  C   UNL     1       1.494  -1.409   2.230  0.00  0.00    -0.050 A 
ATOM      4  C   UNL     1       0.562  -1.244   1.222  0.00  0.00    +0.004 A 
ATOM      5  C   UNL     1      -0.133  -2.336   0.739  0.00  0.00    +0.006 A 
ATOM      6  C   UNL     1       0.104  -3.594   1.262  0.00  0.00    -0.015 A 
ATOM      7  C   UNL     1       1.036  -3.759   2.269  0.00  0.00    -0.045 A 
ATOM      8  C   UNL     1       1.735  -2.667   2.750  0.00  0.00    +0.007 A 
ATOM      9  C   UNL     1       1.294  -5.130   2.840  0.00  0.00    +0.044 C 
ENDBRANCH   1   6
BRANCH   1  10
ATOM     10  C   UNL     1      -2.136  -4.531   0.858  0.00  0.00    +0.239 C 
ATOM     11  O   UNL     1      -2.839  -4.557  -0.129  0.00  0.00    -0.273 OA
ATOM     12  N   UNL     1      -2.678  -4.275   2.065  0.00  0.00    -0.308 N 
ATOM     13  H   UNL     1      -2.107  -4.182   2.844  0.00  0.00    +0.149 HD
BRANCH  12  14
ATOM     14  C   UNL     1      -4.130  -4.135   2.201  0.00  0.00    +0.030 C 
ATOM     15  C   UNL     1      -4.595  -2.886   1.451  0.00  0.00    +0.031 C 
ATOM     16  C   UNL     1      -4.818  -5.369   1.613  0.00  0.00    +0.031 C 
BRANCH  14  17
ATOM     17  C   UNL     1      -4.494  -4.006   3.682  0.00  0.00    +0.031 C 
BRANCH  17  18
ATOM     18  C   UNL     1      -3.486  -4.790   4.525  0.00  0.00    -0.036 C 
ATOM     19  C   UNL     1      -2.228  -3.944   4.734  0.00  0.00    +0.010 C 
ATOM     20  C   UNL     1      -4.107  -5.124   5.883  0.00  0.00    +0.010 C 
ATOM     21  C   UNL     1      -3.115  -6.086   3.801  0.00  0.00    +0.010 C 
ENDBRANCH  17  18
ENDBRANCH  14  17
ENDBRANCH  12  14
ENDBRANCH   1  10
BRANCH   1  22
ATOM     22  N   UNL     1      -0.312  -4.999  -0.672  0.00  0.00    -0.252 N 
ATOM     23  C   UNL     1      -0.788  -6.078  -1.325  0.00  0.00    +0.241 C 
ATOM     24  O   UNL     1      -1.501  -6.871  -0.747  0.00  0.00    -0.273 OA
BRANCH  22  25
ATOM     25  C   UNL     1       0.511  -4.084  -1.339  0.00  0.00    +0.056 A 
ATOM     26  C   UNL     1       1.889  -4.256  -1.334  0.00  0.00    +0.025 A 
ATOM     27  C   UNL     1       2.699  -3.351  -1.993  0.00  0.00    +0.002 A 
ATOM     28  C   UNL     1       2.139  -2.275  -2.657  0.00  0.00    +0.002 A 
ATOM     29  C   UNL     1       0.767  -2.101  -2.664  0.00  0.00    +0.022 A 
ATOM     30  C   UNL     1      -0.049  -3.006  -2.012  0.00  0.00    +0.062 A 
ATOM     31 CL   UNL     1      -1.772  -2.791  -2.028  0.00  0.00    -0.082 Cl
ENDBRANCH  22  25
BRANCH  23  32
ATOM     32  C   UNL     1      -0.434  -6.299  -2.773  0.00  0.00    +0.160 C 
ATOM     33  C   UNL     1      -1.343  -5.442  -3.682  0.00  0.00    +0.041 C 
ATOM     34  C   UNL     1      -2.481  -6.434  -4.015  0.00  0.00    +0.098 C 
ATOM     35  C   UNL     1      -1.846  -7.797  -3.848  0.00  0.00    +0.214 C 
ATOM     36  O   UNL     1      -2.304  -8.835  -4.277  0.00  0.00    -0.276 OA
ATOM     37  N   UNL     1      -0.698  -7.692  -3.154  0.00  0.00    -0.304 N 
ATOM     38  H   UNL     1      -0.119  -8.438  -2.933  0.00  0.00    +0.149 HD
ENDBRANCH  23  32
ENDBRANCH   1  22
TORSDOF 8
