REMARK  Name = ZINC66699117
REMARK  10 active torsions:
REMARK  status: ('A' for Active; 'I' for Inactive)
REMARK    1  A    between atoms: C_1  and  C_2
REMARK    2  A    between atoms: C_2  and  O_3
REMARK    3  A    between atoms: O_3  and  C_4
REMARK    4  A    between atoms: C_4  and  C_5
REMARK    5  A    between atoms: N_7  and  N_8
REMARK    6  A    between atoms: N_11  and  C_12
REMARK    7  A    between atoms: C_12  and  C_13
REMARK    8  A    between atoms: C_18  and  C_19
REMARK    9  A    between atoms: C_19  and  N_20
REMARK   10  A    between atoms: C_25  and  C_27
REMARK                            x       y       z     vdW  Elec       q    Type
REMARK                         _______ _______ _______ _____ _____    ______ ____
ROOT
ATOM      1  C   UNL     1      -4.279  -8.137  -0.094  0.00  0.00    +0.141 C 
ENDROOT
BRANCH   1   5
ATOM      2  N   UNL     1      -5.138  -4.563  -0.011  0.00  0.00    -0.218 N 
ATOM      3  C   UNL     1      -5.252  -5.906   0.011  0.00  0.00    +0.316 C 
ATOM      4  O   UNL     1      -6.345  -6.421   0.146  0.00  0.00    -0.251 OA
ATOM      5  N   UNL     1      -4.155  -6.678  -0.118  0.00  0.00    -0.294 N 
ATOM      6  H   UNL     1      -5.928  -4.008   0.081  0.00  0.00    +0.174 HD
ATOM      7  H   UNL     1      -3.283  -6.267  -0.227  0.00  0.00    +0.151 HD
BRANCH   2  10
ATOM      8  C   UNL     1      -3.765  -2.627  -0.190  0.00  0.00    +0.255 C 
ATOM      9  O   UNL     1      -4.752  -1.933  -0.074  0.00  0.00    -0.272 OA
ATOM     10  N   UNL     1      -3.879  -3.970  -0.168  0.00  0.00    -0.231 N 
ATOM     11  H   UNL     1      -3.089  -4.525  -0.261  0.00  0.00    +0.173 HD
BRANCH   8  12
ATOM     12  C   UNL     1      -2.410  -1.989  -0.359  0.00  0.00    +0.256 C 
BRANCH  12  13
ATOM     13  O   UNL     1      -2.549  -0.567  -0.351  0.00  0.00    -0.371 OA
BRANCH  13  15
ATOM     14  C   UNL     1      -1.584   1.645  -0.481  0.00  0.00    +0.034 C 
ATOM     15  C   UNL     1      -1.316   0.139  -0.505  0.00  0.00    +0.157 C 
ENDBRANCH  13  15
ENDBRANCH  12  13
ENDBRANCH   8  12
ENDBRANCH   2  10
ENDBRANCH   1   5
BRANCH   1  16
ATOM     16  C   UNL     1      -2.906  -8.759  -0.126  0.00  0.00    -0.029 A 
ATOM     17  C   UNL     1      -2.380  -9.212  -1.321  0.00  0.00    +0.005 A 
ATOM     18  C   UNL     1      -1.121  -9.782  -1.351  0.00  0.00    +0.000 A 
ATOM     19  C   UNL     1      -0.388  -9.898  -0.184  0.00  0.00    +0.000 A 
ATOM     20  C   UNL     1      -0.914  -9.445   1.011  0.00  0.00    +0.002 A 
ATOM     21  C   UNL     1      -2.171  -8.871   1.039  0.00  0.00    -0.059 A 
BRANCH  21  22
ATOM     22  C   UNL     1      -2.743  -8.371   2.341  0.00  0.00    -0.042 C 
BRANCH  22  23
ATOM     23  N   UNL     1      -2.546  -6.919   2.438  0.00  0.00    +0.384 N 
ATOM     24  C   UNL     1      -1.108  -6.623   2.473  0.00  0.00    -0.078 C 
ATOM     25  C   UNL     1      -0.896  -5.108   2.492  0.00  0.00    -0.019 C 
ATOM     26  C   UNL     1      -1.571  -4.518   3.733  0.00  0.00    -0.003 C 
ATOM     27  C   UNL     1      -3.055  -4.896   3.723  0.00  0.00    -0.016 C 
ATOM     28  C   UNL     1      -3.187  -6.419   3.659  0.00  0.00    -0.071 C 
ATOM     29  C   UNL     1      -4.669  -6.802   3.650  0.00  0.00    -0.013 C 
ATOM     30  H   UNL     1      -2.959  -6.471   1.634  0.00  0.00    -0.081 HD
ENDBRANCH  22  23
ENDBRANCH  21  22
ENDBRANCH   1  16
TORSDOF 8
