REMARK  Name = ZINC40753435
REMARK  7 active torsions:
REMARK  status: ('A' for Active; 'I' for Inactive)
REMARK    1  A    between atoms: C_1  and  C_2
REMARK    2  A    between atoms: C_2  and  O_3
REMARK    3  A    between atoms: O_3  and  C_4
REMARK    4  A    between atoms: C_4  and  C_6
REMARK    5  A    between atoms: C_14  and  N_27
REMARK    6  A    between atoms: C_15  and  N_19
REMARK    7  A    between atoms: C_23  and  C_26
REMARK                            x       y       z     vdW  Elec       q    Type
REMARK                         _______ _______ _______ _____ _____    ______ ____
ROOT
ATOM      1  C   UNL     1      -2.095  -4.290   1.431  0.00  0.00    +0.115 C 
ATOM      2  C   UNL     1      -2.328  -2.779   1.361  0.00  0.00    +0.018 C 
ATOM      3  C   UNL     1      -2.998  -2.425   0.032  0.00  0.00    +0.020 C 
ATOM      4  C   UNL     1      -4.356  -3.128  -0.055  0.00  0.00    +0.106 C 
ATOM      5  N   UNL     1      -4.157  -4.568   0.156  0.00  0.00    -0.313 N 
ATOM      6  C   UNL     1      -3.443  -5.014   1.360  0.00  0.00    +0.121 C 
ATOM      7  C   UNL     1      -4.636  -5.492  -0.766  0.00  0.00    +0.147 A 
ATOM      8  C   UNL     1      -5.882  -6.095  -0.584  0.00  0.00    +0.106 A 
ATOM      9  C   UNL     1      -6.314  -7.015  -1.539  0.00  0.00    +0.150 A 
ATOM     10  N   UNL     1      -5.529  -7.281  -2.581  0.00  0.00    -0.219 NA
ATOM     11  C   UNL     1      -4.360  -6.689  -2.715  0.00  0.00    +0.225 A 
ATOM     12  N   UNL     1      -3.916  -5.810  -1.839  0.00  0.00    -0.219 NA
ENDROOT
BRANCH   9  13
ATOM     13  N   UNL     1      -7.547  -7.646  -1.406  0.00  0.00    -0.283 N 
ATOM     14  C   UNL     1      -7.921  -8.641  -2.304  0.00  0.00    +0.124 A 
ATOM     15  C   UNL     1      -9.105  -9.343  -2.102  0.00  0.00    +0.044 A 
ATOM     16  C   UNL     1      -9.464 -10.329  -3.003  0.00  0.00    +0.008 A 
ATOM     17  C   UNL     1      -8.624 -10.581  -4.080  0.00  0.00    -0.032 A 
ATOM     18  C   UNL     1      -7.464  -9.846  -4.219  0.00  0.00    +0.116 A 
ATOM     19  N   UNL     1      -7.149  -8.907  -3.346  0.00  0.00    -0.240 NA
ATOM     20  C   UNL     1      -8.975 -11.646  -5.086  0.00  0.00    +0.045 C 
ATOM     21  H   UNL     1      -8.147  -7.392  -0.687  0.00  0.00    +0.155 HD
ENDBRANCH   9  13
BRANCH   8  22
ATOM     22  N   UNL     1      -6.678  -5.785   0.531  0.00  0.00    -0.353 N 
ATOM     23  H   UNL     1      -6.399  -5.091   1.148  0.00  0.00    +0.143 HD
ATOM     24  H   UNL     1      -7.506  -6.266   0.684  0.00  0.00    +0.143 HD
ENDBRANCH   8  22
BRANCH   1  25
ATOM     25  C   UNL     1      -1.407  -4.633   2.727  0.00  0.00    +0.312 C 
ATOM     26  O   UNL     1      -1.938  -5.382   3.513  0.00  0.00    -0.250 OA
BRANCH  25  27
ATOM     27  O   UNL     1      -0.204  -4.108   3.007  0.00  0.00    -0.465 OA
BRANCH  27  29
ATOM     28  C   UNL     1       1.747  -3.785   4.396  0.00  0.00    +0.048 C 
ATOM     29  C   UNL     1       0.390  -4.477   4.254  0.00  0.00    +0.229 C 
ENDBRANCH  27  29
ENDBRANCH  25  27
ENDBRANCH   1  25
TORSDOF 5
