REMARK  Name = ZINC64175313
REMARK  8 active torsions:
REMARK  status: ('A' for Active; 'I' for Inactive)
REMARK    1  A    between atoms: C_4  and  C_7
REMARK    2  A    between atoms: C_7  and  C_9
REMARK    3  A    between atoms: C_14  and  N_15
REMARK    4  A    between atoms: C_16  and  C_18
REMARK    5  A    between atoms: C_18  and  C_19
REMARK    6  A    between atoms: C_19  and  S_20
REMARK    7  A    between atoms: S_20  and  C_21
REMARK    8  A    between atoms: C_25  and  C_27
REMARK                            x       y       z     vdW  Elec       q    Type
REMARK                         _______ _______ _______ _____ _____    ______ ____
ROOT
ATOM      1  C   UNL     1       8.732  -1.794  -0.015  0.00  0.00    +0.107 C 
ENDROOT
BRANCH   1   3
ATOM      2  N   UNL     1       6.268  -2.003   0.048  0.00  0.00    -0.285 N 
ATOM      3  C   UNL     1       7.468  -2.614  -0.012  0.00  0.00    +0.218 C 
ATOM      4  O   UNL     1       7.530  -3.825  -0.063  0.00  0.00    -0.275 OA
ATOM      5  H   UNL     1       6.219  -1.043   0.175  0.00  0.00    +0.155 HD
BRANCH   2  11
ATOM      6  C   UNL     1       3.901  -2.281   0.488  0.00  0.00    +0.043 A 
ATOM      7  C   UNL     1       2.733  -3.039   0.355  0.00  0.00    +0.013 A 
ATOM      8  C   UNL     1       2.767  -4.240  -0.318  0.00  0.00    +0.001 A 
ATOM      9  C   UNL     1       3.954  -4.704  -0.864  0.00  0.00    +0.002 A 
ATOM     10  C   UNL     1       5.115  -3.967  -0.741  0.00  0.00    +0.024 A 
ATOM     11  C   UNL     1       5.099  -2.751  -0.072  0.00  0.00    +0.044 A 
BRANCH   6  12
ATOM     12  C   UNL     1       3.872  -0.994   1.206  0.00  0.00    +0.195 C 
ATOM     13  O   UNL     1       3.316  -0.033   0.709  0.00  0.00    -0.287 OA
BRANCH  12  17
ATOM     14  C   UNL     1       5.727  -0.642   5.010  0.00  0.00    +0.000 A 
ATOM     15  C   UNL     1       5.190   0.478   4.400  0.00  0.00    +0.001 A 
ATOM     16  C   UNL     1       4.585   0.370   3.164  0.00  0.00    +0.012 A 
ATOM     17  C   UNL     1       4.518  -0.871   2.529  0.00  0.00    +0.022 A 
ATOM     18  C   UNL     1       5.063  -1.997   3.151  0.00  0.00    +0.012 A 
ATOM     19  C   UNL     1       5.663  -1.876   4.386  0.00  0.00    +0.001 A 
ENDBRANCH  12  17
ENDBRANCH   6  12
ENDBRANCH   2  11
ENDBRANCH   1   3
BRANCH   1  20
ATOM     20  C   UNL     1       9.944  -2.725  -0.089  0.00  0.00    +0.083 C 
BRANCH  20  21
ATOM     21  S   UNL     1      11.465  -1.738  -0.092  0.00  0.00    -0.096 S 
BRANCH  21  22
ATOM     22  C   UNL     1      12.790  -2.973  -0.182  0.00  0.00    +0.339 C 
ATOM     23  N   UNL     1      12.705  -3.902   0.959  0.00  0.00    -0.219 N 
ATOM     24  N   UNL     1      12.498  -5.170   0.396  0.00  0.00    -0.145 NA
ATOM     25  C   UNL     1      12.455  -5.082  -0.907  0.00  0.00    +0.238 C 
ATOM     26  O   UNL     1      12.622  -3.805  -1.338  0.00  0.00    -0.443 OA
ATOM     27  H   UNL     1      12.777  -3.682   1.901  0.00  0.00    +0.173 HD
BRANCH  25  28
ATOM     28  C   UNL     1      12.261  -6.177  -1.760  0.00  0.00    +0.043 C 
ATOM     29  C   UNL     1      12.078  -7.511  -1.392  0.00  0.00    +0.008 A 
ATOM     30  C   UNL     1      12.031  -8.156  -0.138  0.00  0.00    +0.010 A 
ATOM     31  C   UNL     1      11.835  -9.499  -0.078  0.00  0.00    +0.001 A 
ATOM     32  C   UNL     1      11.676 -10.267  -1.234  0.00  0.00    +0.002 A 
ATOM     33  C   UNL     1      11.710  -9.713  -2.471  0.00  0.00    +0.026 A 
ATOM     34  C   UNL     1      11.911  -8.316  -2.613  0.00  0.00    +0.043 A 
ATOM     35  N   UNL     1      11.982  -7.550  -3.684  0.00  0.00    -0.380 N 
ATOM     36  C   UNL     1      12.198  -6.160  -3.271  0.00  0.00    +0.154 C 
ATOM     37  H   UNL     1      11.902  -7.857  -4.601  0.00  0.00    +0.160 HD
ENDBRANCH  25  28
ENDBRANCH  21  22
ENDBRANCH  20  21
ENDBRANCH   1  20
TORSDOF 8
