REMARK  Name = ZINC28060093
REMARK  3 active torsions:
REMARK  status: ('A' for Active; 'I' for Inactive)
REMARK    1  A    between atoms: C_1  and  C_2
REMARK    2  A    between atoms: C_10  and  C_13
REMARK    3  A    between atoms: C_21  and  C_29
REMARK                            x       y       z     vdW  Elec       q    Type
REMARK                         _______ _______ _______ _____ _____    ______ ____
ROOT
ATOM      1  C   UNL     1      -2.019   0.468  -0.064  0.00  0.00    +0.044 C 
ATOM      2  C   UNL     1      -0.822   1.384  -0.044  0.00  0.00    -0.050 A 
ATOM      3  C   UNL     1       0.454   0.849  -0.026  0.00  0.00    +0.007 A 
ATOM      4  C   UNL     1       1.563   1.676  -0.011  0.00  0.00    +0.046 A 
ATOM      5  C   UNL     1       1.395   3.048  -0.010  0.00  0.00    +0.131 A 
ATOM      6  C   UNL     1       0.104   3.591  -0.025  0.00  0.00    +0.038 A 
ATOM      7  C   UNL     1      -1.004   2.753  -0.038  0.00  0.00    +0.016 A 
ATOM      8  C   UNL     1      -0.040   5.067  -0.028  0.00  0.00    +0.050 C 
ATOM      9  C   UNL     1       1.015   5.808   0.319  0.00  0.00    +0.025 C 
ATOM     10  C   UNL     1       2.299   5.119   0.722  0.00  0.00    +0.234 C 
ATOM     11  O   UNL     1       2.457   3.894   0.007  0.00  0.00    -0.479 OA
ATOM     12  C   UNL     1       0.973   7.316   0.329  0.00  0.00    +0.175 C 
ATOM     13  N   UNL     1      -0.223   7.790  -0.352  0.00  0.00    -0.201 N 
ATOM     14  C   UNL     1      -1.271   6.992  -0.685  0.00  0.00    +0.240 A 
ATOM     15  N   UNL     1      -2.162   7.743  -1.266  0.00  0.00    -0.092 NA
ATOM     16  N   UNL     1      -1.745   8.961  -1.330  0.00  0.00    -0.021 NA
ATOM     17  N   UNL     1      -0.572   9.065  -0.795  0.00  0.00    -0.042 NA
ATOM     18  N   UNL     1      -1.262   5.636  -0.405  0.00  0.00    -0.282 N 
ATOM     19  H   UNL     1      -2.164   5.009  -0.468  0.00  0.00    +0.155 HD
ENDROOT
BRANCH  10  20
ATOM     20  C   UNL     1       2.265   4.830   2.201  0.00  0.00    -0.002 A 
ATOM     21  C   UNL     1       3.020   5.595   3.071  0.00  0.00    +0.010 A 
ATOM     22  C   UNL     1       2.990   5.332   4.428  0.00  0.00    +0.040 A 
ATOM     23  C   UNL     1       2.203   4.302   4.915  0.00  0.00    +0.137 A 
ATOM     24  C   UNL     1       1.447   3.537   4.043  0.00  0.00    +0.053 A 
ATOM     25  C   UNL     1       1.474   3.806   2.687  0.00  0.00    +0.025 A 
ATOM     26 BR   UNL     1       0.371   2.130   4.707  0.00  0.00    -0.047 Br
ATOM     27  F   UNL     1       2.173   4.044   6.241  0.00  0.00    -0.204 F 
ENDBRANCH  10  20
BRANCH  12  28
ATOM     28  C   UNL     1       0.964   7.806   1.754  0.00  0.00    -0.001 A 
ATOM     29  C   UNL     1       1.978   8.628   2.221  0.00  0.00    +0.009 A 
ATOM     30  C   UNL     1       1.928   9.054   3.539  0.00  0.00    +0.020 A 
ATOM     31  C   UNL     1       0.876   8.648   4.339  0.00  0.00    +0.111 A 
ATOM     32  N   UNL     1      -0.071   7.866   3.861  0.00  0.00    -0.263 NA
ATOM     33  C   UNL     1      -0.059   7.446   2.611  0.00  0.00    +0.116 A 
ENDBRANCH  12  28
TORSDOF 2
