REMARK  Name = ZINC15558975
REMARK  11 active torsions:
REMARK  status: ('A' for Active; 'I' for Inactive)
REMARK    1  A    between atoms: C_1  and  C_2
REMARK    2  A    between atoms: C_4  and  C_33
REMARK    3  A    between atoms: C_5  and  C_32
REMARK    4  A    between atoms: C_6  and  S_9
REMARK    5  A    between atoms: C_7  and  C_8
REMARK    6  A    between atoms: S_9  and  N_12
REMARK    7  A    between atoms: C_15  and  C_18
REMARK    8  A    between atoms: N_20  and  C_21
REMARK    9  A    between atoms: C_21  and  C_22
REMARK   10  A    between atoms: C_24  and  N_29
REMARK   11  A    between atoms: C_27  and  O_28
REMARK                            x       y       z     vdW  Elec       q    Type
REMARK                         _______ _______ _______ _____ _____    ______ ____
ROOT
ATOM      1  N   UNL     1       1.617  -2.804   3.335  0.00  0.00    -0.177 NA
ATOM      2  C   UNL     1       2.232  -4.110   3.061  0.00  0.00    +0.110 C 
ATOM      3  C   UNL     1       2.840  -4.651   4.358  0.00  0.00    +0.030 C 
ATOM      4  C   UNL     1       3.803  -3.612   4.937  0.00  0.00    +0.077 C 
ATOM      5  C   UNL     1       3.036  -2.328   5.262  0.00  0.00    +0.030 C 
ATOM      6  C   UNL     1       2.432  -1.759   3.969  0.00  0.00    +0.110 C 
ENDROOT
BRANCH   4   7
ATOM      7  C   UNL     1       4.429  -4.154   6.196  0.00  0.00    +0.216 C 
ATOM      8  O   UNL     1       4.134  -5.263   6.591  0.00  0.00    -0.276 OA
ATOM      9  N   UNL     1       5.316  -3.408   6.883  0.00  0.00    -0.311 N 
ATOM     10  H   UNL     1       5.552  -2.522   6.567  0.00  0.00    +0.149 HD
BRANCH   9  11
ATOM     11  C   UNL     1       5.925  -3.935   8.107  0.00  0.00    +0.143 C 
BRANCH  11  12
ATOM     12  C   UNL     1       6.873  -2.912   8.678  0.00  0.00    +0.013 A 
ATOM     13  C   UNL     1       6.516  -2.188   9.799  0.00  0.00    +0.041 A 
ATOM     14  C   UNL     1       7.386  -1.250  10.322  0.00  0.00    +0.127 A 
ATOM     15  C   UNL     1       8.614  -1.033   9.726  0.00  0.00    +0.036 A 
ATOM     16  C   UNL     1       8.976  -1.755   8.605  0.00  0.00    +0.048 A 
ATOM     17  C   UNL     1       8.108  -2.701   8.081  0.00  0.00    +0.122 A 
BRANCH  14  18
ATOM     18  N   UNL     1       7.001  -0.475  11.523  0.00  0.00    +0.056 N 
ATOM     19  O   UNL     1       5.926  -0.663  12.045  0.00  0.00    -0.126 OA
ATOM     20  O   UNL     1       7.760   0.346  11.982  0.00  0.00    -0.126 OA
ENDBRANCH  14  18
BRANCH  17  21
ATOM     21  O   UNL     1       8.463  -3.416   6.981  0.00  0.00    -0.506 OA
ATOM     22  H   UNL     1       8.209  -3.003   6.144  0.00  0.00    +0.292 HD
ENDBRANCH  17  21
ENDBRANCH  11  12
ENDBRANCH   9  11
ENDBRANCH   4   7
BRANCH   1  23
ATOM     23  S   UNL     1       0.037  -2.514   2.930  0.00  0.00    +0.061 S 
ATOM     24  O   UNL     1      -0.410  -1.460   3.772  0.00  0.00    -0.153 OA
ATOM     25  O   UNL     1      -0.609  -3.778   2.882  0.00  0.00    -0.153 OA
BRANCH  23  31
ATOM     26  C   UNL     1      -0.250  -3.191  -2.245  0.00  0.00    +0.044 C 
ATOM     27  C   UNL     1      -0.107  -2.250  -1.077  0.00  0.00    -0.045 A 
ATOM     28  C   UNL     1       0.017  -0.891  -1.296  0.00  0.00    +0.007 A 
ATOM     29  C   UNL     1       0.148  -0.027  -0.224  0.00  0.00    -0.045 A 
ATOM     30  C   UNL     1       0.154  -0.523   1.066  0.00  0.00    -0.021 A 
ATOM     31  C   UNL     1       0.029  -1.882   1.285  0.00  0.00    +0.112 A 
ATOM     32  C   UNL     1      -0.106  -2.745   0.214  0.00  0.00    -0.021 A 
ATOM     33  C   UNL     1      -0.248  -4.226   0.453  0.00  0.00    +0.046 C 
ATOM     34  C   UNL     1       0.298   0.418   2.234  0.00  0.00    +0.046 C 
ATOM     35  C   UNL     1       0.284   1.455  -0.463  0.00  0.00    +0.044 C 
ENDBRANCH  23  31
ENDBRANCH   1  23
TORSDOF 7
