REMARK  Name = ZINC33551953
REMARK  11 active torsions:
REMARK  status: ('A' for Active; 'I' for Inactive)
REMARK    1  A    between atoms: C_1  and  C_2
REMARK    2  A    between atoms: C_2  and  O_3
REMARK    3  A    between atoms: O_3  and  C_4
REMARK    4  A    between atoms: C_14  and  C_28
REMARK    5  A    between atoms: C_16  and  C_21
REMARK    6  A    between atoms: C_21  and  C_23
REMARK    7  A    between atoms: C_31  and  O_36
REMARK    8  A    between atoms: C_32  and  O_34
REMARK    9  A    between atoms: O_34  and  C_35
REMARK   10  A    between atoms: O_36  and  C_37
REMARK   11  A    between atoms: C_37  and  C_38
REMARK                            x       y       z     vdW  Elec       q    Type
REMARK                         _______ _______ _______ _____ _____    ______ ____
ROOT
ATOM      1  C   UNL     1       2.892  -2.533   2.438  0.00  0.00    +0.122 A 
ATOM      2  C   UNL     1       1.633  -3.124   2.406  0.00  0.00    +0.048 A 
ATOM      3  C   UNL     1       0.512  -2.399   2.147  0.00  0.00    +0.032 A 
ATOM      4  C   UNL     1       0.586  -1.009   1.899  0.00  0.00    +0.081 A 
ATOM      5  C   UNL     1       1.878  -0.435   1.938  0.00  0.00    +0.044 A 
ATOM      6  C   UNL     1       3.007  -1.171   2.200  0.00  0.00    +0.063 A 
ATOM      7  S   UNL     1       1.543   1.274   1.587  0.00  0.00    -0.052 S 
ATOM      8  C   UNL     1      -0.230   1.126   1.416  0.00  0.00    +0.169 A 
ATOM      9  N   UNL     1      -0.425  -0.154   1.629  0.00  0.00    -0.224 NA
ATOM     10  N   UNL     1      -1.159   2.110   1.126  0.00  0.00    -0.232 N 
ATOM     11  C   UNL     1      -2.608   1.917   0.993  0.00  0.00    +0.152 C 
ATOM     12  C   UNL     1      -3.185   3.277   0.675  0.00  0.00    +0.080 C 
ATOM     13  C   UNL     1      -2.146   4.142   0.636  0.00  0.00    +0.250 C 
ATOM     14  C   UNL     1      -0.895   3.413   0.921  0.00  0.00    +0.293 C 
ATOM     15  O   UNL     1       0.211   3.915   0.964  0.00  0.00    -0.266 OA
ATOM     16  O   UNL     1      -2.239   5.468   0.380  0.00  0.00    -0.282 OA
ENDROOT
BRANCH  11  17
ATOM     17  C   UNL     1      -3.182   1.398   2.286  0.00  0.00    -0.018 A 
ATOM     18  C   UNL     1      -3.747   0.137   2.333  0.00  0.00    +0.009 A 
ATOM     19  C   UNL     1      -4.270  -0.346   3.518  0.00  0.00    +0.050 A 
ATOM     20  C   UNL     1      -4.240   0.439   4.660  0.00  0.00    +0.162 A 
ATOM     21  C   UNL     1      -3.677   1.710   4.611  0.00  0.00    +0.162 A 
ATOM     22  C   UNL     1      -3.149   2.186   3.421  0.00  0.00    +0.055 A 
BRANCH  21  23
ATOM     23  O   UNL     1      -3.644   2.485   5.729  0.00  0.00    -0.491 OA
ATOM     24  C   UNL     1      -2.946   3.728   5.636  0.00  0.00    +0.277 C 
ENDBRANCH  21  23
BRANCH  20  25
ATOM     25  O   UNL     1      -4.759  -0.032   5.824  0.00  0.00    -0.489 OA
BRANCH  25  26
ATOM     26  C   UNL     1      -5.321  -1.346   5.800  0.00  0.00    +0.226 C 
ATOM     27  C   UNL     1      -5.851  -1.700   7.191  0.00  0.00    +0.048 C 
ENDBRANCH  25  26
ENDBRANCH  20  25
ENDBRANCH  11  17
BRANCH  12  28
ATOM     28  C   UNL     1      -4.600   3.597   0.452  0.00  0.00    +0.230 C 
ATOM     29  O   UNL     1      -4.949   4.757   0.325  0.00  0.00    -0.283 OA
BRANCH  28  30
ATOM     30  C   UNL     1      -5.592   2.521   0.382  0.00  0.00    +0.175 A 
ATOM     31  C   UNL     1      -6.959   2.681   0.303  0.00  0.00    +0.053 A 
ATOM     32  C   UNL     1      -7.510   1.392   0.254  0.00  0.00    +0.042 A 
ATOM     33  C   UNL     1      -6.482   0.515   0.312  0.00  0.00    +0.196 A 
ATOM     34  O   UNL     1      -5.332   1.197   0.389  0.00  0.00    -0.460 OA
ENDBRANCH  28  30
ENDBRANCH  12  28
BRANCH   1  35
ATOM     35  O   UNL     1       3.997  -3.281   2.698  0.00  0.00    -0.492 OA
BRANCH  35  37
ATOM     36  C   UNL     1       5.143  -5.347   3.206  0.00  0.00    +0.048 C 
ATOM     37  C   UNL     1       3.796  -4.676   2.933  0.00  0.00    +0.225 C 
ENDBRANCH  35  37
ENDBRANCH   1  35
TORSDOF 8
