REMARK  Name = ZINC09577212
REMARK  5 active torsions:
REMARK  status: ('A' for Active; 'I' for Inactive)
REMARK    1  A    between atoms: C_7  and  C_11
REMARK    2  A    between atoms: C_11  and  C_12
REMARK    3  A    between atoms: N_16  and  C_20
REMARK    4  A    between atoms: C_20  and  C_21
REMARK    5  A    between atoms: C_23  and  C_26
REMARK                            x       y       z     vdW  Elec       q    Type
REMARK                         _______ _______ _______ _____ _____    ______ ____
ROOT
ATOM      1  C   UNL     1      -6.051   6.270   3.580  0.00  0.00    +0.165 C 
ATOM      2  C   UNL     1      -5.835   5.548   2.265  0.00  0.00    +0.244 C 
ATOM      3  O   UNL     1      -6.147   4.408   1.996  0.00  0.00    -0.273 OA
ATOM      4  N   UNL     1      -5.223   6.436   1.457  0.00  0.00    -0.218 N 
ATOM      5  C   UNL     1      -5.031   7.610   2.071  0.00  0.00    +0.310 C 
ATOM      6  O   UNL     1      -4.501   8.569   1.544  0.00  0.00    -0.252 OA
ATOM      7  N   UNL     1      -5.489   7.610   3.336  0.00  0.00    -0.287 N 
ATOM      8  H   UNL     1      -5.455   8.348   3.964  0.00  0.00    +0.151 HD
ENDROOT
BRANCH   1   9
ATOM      9  C   UNL     1      -7.544   6.363   3.900  0.00  0.00    +0.069 C 
BRANCH   9  16
ATOM     10  C   UNL     1      -7.816  10.887   5.095  0.00  0.00    +0.001 A 
ATOM     11  C   UNL     1      -7.997  11.077   6.458  0.00  0.00    +0.002 A 
ATOM     12  C   UNL     1      -8.080   9.999   7.312  0.00  0.00    +0.026 A 
ATOM     13  C   UNL     1      -7.981   8.707   6.806  0.00  0.00    +0.047 A 
ATOM     14  C   UNL     1      -7.797   8.521   5.424  0.00  0.00    +0.003 A 
ATOM     15  C   UNL     1      -7.715   9.627   4.577  0.00  0.00    +0.010 A 
ATOM     16  C   UNL     1      -7.733   7.072   5.216  0.00  0.00    -0.020 A 
ATOM     17  C   UNL     1      -7.880   6.496   6.420  0.00  0.00    +0.087 A 
ATOM     18  N   UNL     1      -8.024   7.457   7.383  0.00  0.00    -0.360 N 
ATOM     19  H   UNL     1      -8.143   7.284   8.330  0.00  0.00    +0.165 HD
ENDBRANCH   9  16
ENDBRANCH   1   9
BRANCH   4  20
ATOM     20  C   UNL     1      -4.824   6.154   0.076  0.00  0.00    +0.176 C 
BRANCH  20  21
ATOM     21  C   UNL     1      -3.419   5.610   0.061  0.00  0.00    +0.102 A 
ATOM     22  C   UNL     1      -3.043   4.253   0.051  0.00  0.00    +0.081 A 
ATOM     23  C   UNL     1      -1.671   4.291   0.039  0.00  0.00    +0.202 A 
ATOM     24  O   UNL     1      -1.335   5.595   0.048  0.00  0.00    -0.351 OA
ATOM     25  N   UNL     1      -2.315   6.303   0.054  0.00  0.00    -0.081 NA
BRANCH  23  26
ATOM     26  C   UNL     1      -0.755   3.142   0.025  0.00  0.00    +0.172 A 
ATOM     27  C   UNL     1       0.607   3.204   0.013  0.00  0.00    +0.053 A 
ATOM     28  C   UNL     1       1.073   1.877   0.002  0.00  0.00    +0.042 A 
ATOM     29  C   UNL     1      -0.013   1.076   0.008  0.00  0.00    +0.196 A 
ATOM     30  O   UNL     1      -1.114   1.843   0.017  0.00  0.00    -0.460 OA
ENDBRANCH  23  26
ENDBRANCH  20  21
ENDBRANCH   4  20
TORSDOF 5
