REMARK  Name = ZINC64986798
REMARK  7 active torsions:
REMARK  status: ('A' for Active; 'I' for Inactive)
REMARK    1  A    between atoms: C_1  and  C_2
REMARK    2  A    between atoms: C_2  and  N_3
REMARK    3  A    between atoms: N_3  and  C_4
REMARK    4  A    between atoms: N_3  and  S_5
REMARK    5  A    between atoms: S_5  and  C_8
REMARK    6  A    between atoms: C_13  and  N_14
REMARK    7  A    between atoms: C_25  and  C_31
REMARK                            x       y       z     vdW  Elec       q    Type
REMARK                         _______ _______ _______ _____ _____    ______ ____
ROOT
ATOM      1  C   UNL     1       3.246   0.710   1.529  0.00  0.00    +0.127 A 
ATOM      2  C   UNL     1       4.064   0.644   2.633  0.00  0.00    +0.047 A 
ATOM      3  C   UNL     1       4.878   1.732   2.969  0.00  0.00    +0.081 A 
ATOM      4  C   UNL     1       4.873   2.877   2.160  0.00  0.00    +0.142 A 
ATOM      5  C   UNL     1       4.034   2.941   1.062  0.00  0.00    +0.072 A 
ATOM      6  C   UNL     1       3.225   1.858   0.740  0.00  0.00    +0.060 A 
ATOM      7  O   UNL     1       5.708   3.908   2.428  0.00  0.00    -0.453 OA
ATOM      8  C   UNL     1       7.045   3.685   2.380  0.00  0.00    +0.150 A 
ATOM      9  C   UNL     1       7.804   4.358   1.433  0.00  0.00    +0.048 A 
ATOM     10  C   UNL     1       9.164   4.131   1.341  0.00  0.00    +0.007 A 
ATOM     11  C   UNL     1       9.773   3.229   2.194  0.00  0.00    -0.048 A 
ATOM     12  C   UNL     1       9.026   2.563   3.146  0.00  0.00    +0.030 A 
ATOM     13  C   UNL     1       7.659   2.797   3.254  0.00  0.00    +0.077 A 
ATOM     14  N   UNL     1       6.945   2.159   4.267  0.00  0.00    -0.278 N 
ATOM     15  C   UNL     1       5.718   1.668   4.170  0.00  0.00    +0.252 C 
ATOM     16  O   UNL     1       5.252   1.121   5.151  0.00  0.00    -0.270 OA
ATOM     17  C   UNL     1      11.254   2.971   2.084  0.00  0.00    +0.044 C 
ATOM     18  H   UNL     1       7.388   2.066   5.125  0.00  0.00    +0.155 HD
ENDROOT
BRANCH   6  19
ATOM     19  N   UNL     1       2.388   1.923  -0.368  0.00  0.00    -0.328 N 
ATOM     20  C   UNL     1       2.848   1.360  -1.618  0.00  0.00    +0.105 C 
ATOM     21  C   UNL     1       3.612   2.440  -2.424  0.00  0.00    +0.019 C 
ATOM     22  C   UNL     1       2.675   3.450  -2.939  0.00  0.00    +0.002 C 
ATOM     23  C   UNL     1       1.940   4.236  -1.857  0.00  0.00    +0.002 C 
ATOM     24  C   UNL     1       0.720   3.463  -1.420  0.00  0.00    +0.019 C 
ATOM     25  C   UNL     1       1.063   2.557  -0.219  0.00  0.00    +0.105 C 
ENDBRANCH   6  19
BRANCH   1  26
ATOM     26  S   UNL     1       2.228  -0.665   1.108  0.00  0.00    +0.062 S 
ATOM     27  O   UNL     1       2.903  -1.368   0.073  0.00  0.00    -0.153 OA
ATOM     28  O   UNL     1       0.909  -0.161   0.951  0.00  0.00    -0.153 OA
BRANCH  26  29
ATOM     29  N   UNL     1       2.197  -1.673   2.421  0.00  0.00    -0.180 NA
ATOM     30  C   UNL     1       3.265  -2.656   2.615  0.00  0.00    +0.131 C 
BRANCH  29  32
ATOM     31  C   UNL     1       1.521  -0.674   4.550  0.00  0.00    +0.022 C 
ATOM     32  C   UNL     1       1.102  -1.580   3.390  0.00  0.00    +0.106 C 
ENDBRANCH  29  32
ENDBRANCH  26  29
ENDBRANCH   1  26
TORSDOF 4
