REMARK  Name = ZINC20885091
REMARK  9 active torsions:
REMARK  status: ('A' for Active; 'I' for Inactive)
REMARK    1  A    between atoms: C_1  and  N_2
REMARK    2  A    between atoms: N_2  and  C_3
REMARK    3  A    between atoms: N_2  and  C_4
REMARK    4  A    between atoms: C_7  and  C_10
REMARK    5  A    between atoms: C_15  and  C_25
REMARK    6  A    between atoms: C_29  and  O_33
REMARK    7  A    between atoms: C_30  and  O_31
REMARK    8  A    between atoms: O_31  and  C_32
REMARK    9  A    between atoms: O_33  and  C_34
REMARK                            x       y       z     vdW  Elec       q    Type
REMARK                         _______ _______ _______ _____ _____    ______ ____
ROOT
ATOM      1  C   UNL     1       5.083  -0.169   4.081  0.00  0.00    +0.032 C 
ATOM      2  C   UNL     1       5.332  -1.580   3.550  0.00  0.00    +0.059 C 
ATOM      3  C   UNL     1       4.659  -1.752   2.198  0.00  0.00    +0.017 C 
ATOM      4  C   UNL     1       4.537  -0.709   1.359  0.00  0.00    +0.037 C 
ATOM      5  C   UNL     1       3.904  -0.745  -0.011  0.00  0.00    +0.140 C 
ATOM      6  N   UNL     1       3.639  -2.074  -0.518  0.00  0.00    -0.331 N 
ATOM      7  C   UNL     1       2.717  -2.911   0.111  0.00  0.00    +0.049 A 
ATOM      8  C   UNL     1       1.523  -3.261  -0.500  0.00  0.00    +0.025 A 
ATOM      9  C   UNL     1       0.589  -3.999   0.206  0.00  0.00    +0.002 A 
ATOM     10  C   UNL     1       0.842  -4.385   1.509  0.00  0.00    +0.002 A 
ATOM     11  C   UNL     1       2.043  -4.056   2.115  0.00  0.00    +0.025 A 
ATOM     12  C   UNL     1       2.986  -3.334   1.403  0.00  0.00    +0.052 A 
ATOM     13  N   UNL     1       4.230  -3.011   1.931  0.00  0.00    -0.316 N 
ATOM     14  C   UNL     1       5.021   0.567   1.733  0.00  0.00    +0.163 C 
ATOM     15  O   UNL     1       4.915   1.488   0.948  0.00  0.00    -0.292 OA
ATOM     16  C   UNL     1       5.662   0.822   3.064  0.00  0.00    +0.088 C 
ATOM     17  H   UNL     1       4.168  -2.438  -1.411  0.00  0.00    +0.147 HD
ATOM     18  H   UNL     1       4.887  -3.870   2.134  0.00  0.00    +0.152 HD
ENDROOT
BRANCH   1  22
ATOM     19  C   UNL     1       7.032   0.321   7.853  0.00  0.00    +0.029 A 
ATOM     20  C   UNL     1       5.654   0.471   7.757  0.00  0.00    +0.023 A 
ATOM     21  C   UNL     1       5.028   0.312   6.537  0.00  0.00    +0.006 A 
ATOM     22  C   UNL     1       5.770   0.004   5.411  0.00  0.00    -0.043 A 
ATOM     23  C   UNL     1       7.141  -0.152   5.505  0.00  0.00    +0.006 A 
ATOM     24  C   UNL     1       7.775   0.011   6.721  0.00  0.00    +0.023 A 
BRANCH  19  26
ATOM     25  C   UNL     1       6.905   0.933  10.252  0.00  0.00    +0.129 C 
ATOM     26  N   UNL     1       7.669   0.482   9.086  0.00  0.00    -0.336 N 
ATOM     27  C   UNL     1       9.101   0.199   9.213  0.00  0.00    +0.129 C 
ENDBRANCH  19  26
ENDBRANCH   1  22
BRANCH   5  28
ATOM     28  C   UNL     1       2.602   0.013   0.044  0.00  0.00    +0.023 A 
ATOM     29  C   UNL     1       1.977   0.225   1.259  0.00  0.00    +0.009 A 
ATOM     30  C   UNL     1       0.783   0.919   1.314  0.00  0.00    +0.004 A 
ATOM     31  C   UNL     1       0.209   1.406   0.154  0.00  0.00    +0.049 A 
ATOM     32  C   UNL     1       0.831   1.198  -1.067  0.00  0.00    +0.162 A 
ATOM     33  C   UNL     1       2.033   0.498  -1.122  0.00  0.00    +0.167 A 
BRANCH  33  34
ATOM     34  O   UNL     1       2.646   0.290  -2.317  0.00  0.00    -0.491 OA
ATOM     35  C   UNL     1       2.209  -0.834  -3.084  0.00  0.00    +0.277 C 
ENDBRANCH  33  34
BRANCH  32  36
ATOM     36  O   UNL     1       0.268   1.676  -2.209  0.00  0.00    -0.491 OA
ATOM     37  C   UNL     1      -0.965   2.386  -2.076  0.00  0.00    +0.277 C 
ENDBRANCH  32  36
ENDBRANCH   5  28
TORSDOF 5
