REMARK  Name = ZINC64520865
REMARK  9 active torsions:
REMARK  status: ('A' for Active; 'I' for Inactive)
REMARK    1  A    between atoms: C_1  and  C_2
REMARK    2  A    between atoms: C_2  and  C_3
REMARK    3  A    between atoms: C_2  and  C_4
REMARK    4  A    between atoms: C_4  and  C_5
REMARK    5  A    between atoms: N_16  and  C_17
REMARK    6  A    between atoms: C_17  and  C_18
REMARK    7  A    between atoms: N_20  and  C_21
REMARK    8  A    between atoms: C_21  and  C_22
REMARK    9  A    between atoms: C_22  and  C_23
REMARK                            x       y       z     vdW  Elec       q    Type
REMARK                         _______ _______ _______ _____ _____    ______ ____
ROOT
ATOM      1  C   UNL     1      -2.388  -3.073  -5.148  0.00  0.00    +0.230 C 
ATOM      2  O   UNL     1      -3.545  -3.230  -4.820  0.00  0.00    -0.274 OA
ATOM      3  N   UNL     1      -1.620  -4.140  -5.445  0.00  0.00    -0.314 N 
ATOM      4  H   UNL     1      -0.695  -4.013  -5.708  0.00  0.00    +0.149 HD
ENDROOT
BRANCH   1   5
ATOM      5  C   UNL     1      -1.809  -1.683  -5.223  0.00  0.00    +0.204 C 
BRANCH   5  15
ATOM      6  C   UNL     1      -2.125  -0.137  -1.266  0.00  0.00    -0.015 C 
ATOM      7  C   UNL     1      -2.248  -0.870  -2.376  0.00  0.00    +0.007 C 
ATOM      8  C   UNL     1      -3.003  -0.298  -3.491  0.00  0.00    +0.123 C 
ATOM      9  C   UNL     1      -3.029   1.259  -3.441  0.00  0.00    +0.133 C 
ATOM     10  S   UNL     1      -2.957   1.409  -1.608  0.00  0.00    -0.113 S 
ATOM     11  S   UNL     1      -4.666   1.720  -4.074  0.00  0.00    -0.135 S 
ATOM     12  C   UNL     1      -4.835   0.672  -5.548  0.00  0.00    +0.166 C 
ATOM     13  C   UNL     1      -3.635  -0.178  -5.799  0.00  0.00    +0.226 C 
ATOM     14  O   UNL     1      -3.352  -0.407  -6.956  0.00  0.00    -0.275 OA
ATOM     15  N   UNL     1      -2.836  -0.706  -4.856  0.00  0.00    -0.284 N 
BRANCH   6  16
ATOM     16  C   UNL     1      -1.433  -0.534   0.013  0.00  0.00    +0.045 C 
BRANCH  16  18
ATOM     17  C   UNL     1      -0.019   1.526   0.010  0.00  0.00    +0.007 C 
ATOM     18  C   UNL     1       0.002  -0.004   0.002  0.00  0.00    -0.012 C 
ATOM     19  C   UNL     1       0.742  -0.511   1.242  0.00  0.00    +0.007 C 
ENDBRANCH  16  18
ENDBRANCH   6  16
ENDBRANCH   5  15
ENDBRANCH   1   5
BRANCH   3  20
ATOM     20  C   UNL     1      -2.183  -5.490  -5.372  0.00  0.00    +0.108 C 
BRANCH  20  21
ATOM     21  C   UNL     1      -1.111  -6.511  -5.756  0.00  0.00    +0.052 C 
BRANCH  21  22
ATOM     22  C   UNL     1      -1.690  -7.901  -5.681  0.00  0.00    -0.040 C 
ATOM     23  C   UNL     1      -2.216  -8.618  -6.699  0.00  0.00    +0.000 A 
ATOM     24  C   UNL     1      -2.401  -8.331  -8.127  0.00  0.00    +0.030 A 
ATOM     25  C   UNL     1      -2.974  -9.269  -8.916  0.00  0.00    +0.042 A 
ATOM     26  C   UNL     1      -3.395 -10.505  -8.405  0.00  0.00    +0.022 A 
ATOM     27  C   UNL     1      -3.258 -10.841  -7.105  0.00  0.00    +0.027 A 
ATOM     28  C   UNL     1      -2.668  -9.931  -6.185  0.00  0.00    +0.043 A 
ATOM     29  N   UNL     1      -2.430 -10.021  -4.899  0.00  0.00    -0.380 N 
ATOM     30  C   UNL     1      -1.793  -8.777  -4.453  0.00  0.00    +0.144 C 
ATOM     31 CL   UNL     1      -3.195  -8.932 -10.605  0.00  0.00    -0.084 Cl
ATOM     32  H   UNL     1      -2.636 -10.785  -4.338  0.00  0.00    +0.160 HD
ENDBRANCH  21  22
ENDBRANCH  20  21
ENDBRANCH   3  20
TORSDOF 7
