REMARK  Name = ZINC36168789
REMARK  5 active torsions:
REMARK  status: ('A' for Active; 'I' for Inactive)
REMARK    1  A    between atoms: C_1  and  C_2
REMARK    2  A    between atoms: C_2  and  C_3
REMARK    3  A    between atoms: N_8  and  S_10
REMARK    4  A    between atoms: S_10  and  C_13
REMARK    5  A    between atoms: C_16  and  N_20
REMARK                            x       y       z     vdW  Elec       q    Type
REMARK                         _______ _______ _______ _____ _____    ______ ____
ROOT
ATOM      1  S   UNL     1      -3.430  -3.558   1.164  0.00  0.00    +0.064 S 
ATOM      2  O   UNL     1      -2.702  -3.313   2.359  0.00  0.00    -0.153 OA
ATOM      3  O   UNL     1      -4.842  -3.413   1.088  0.00  0.00    -0.153 OA
ENDROOT
BRANCH   1   4
ATOM      4  C   UNL     1      -3.068  -5.215   0.684  0.00  0.00    +0.142 A 
ATOM      5  C   UNL     1      -3.954  -5.910  -0.120  0.00  0.00    +0.070 A 
ATOM      6  C   UNL     1      -3.673  -7.209  -0.498  0.00  0.00    +0.044 A 
ATOM      7  C   UNL     1      -2.499  -7.817  -0.070  0.00  0.00    +0.027 A 
ATOM      8  C   UNL     1      -1.612  -7.117   0.737  0.00  0.00    +0.044 A 
ATOM      9  C   UNL     1      -1.896  -5.816   1.108  0.00  0.00    +0.070 A 
ATOM     10 CL   UNL     1      -0.785  -4.937   2.111  0.00  0.00    -0.081 Cl
ATOM     11 CL   UNL     1      -5.420  -5.149  -0.655  0.00  0.00    -0.081 Cl
BRANCH   7  12
ATOM     12  N   UNL     1      -2.213  -9.130  -0.450  0.00  0.00    -0.358 N 
ATOM     13  H   UNL     1      -2.833  -9.618  -1.013  0.00  0.00    +0.142 HD
ATOM     14  H   UNL     1      -1.393  -9.554  -0.150  0.00  0.00    +0.142 HD
ENDBRANCH   7  12
ENDBRANCH   1   4
BRANCH   1  19
ATOM     15  C   UNL     1      -1.433  -0.534   0.013  0.00  0.00    +0.005 C 
ATOM     16  C   UNL     1      -2.135  -0.133  -1.286  0.00  0.00    +0.006 C 
ATOM     17  C   UNL     1      -3.581  -0.634  -1.262  0.00  0.00    +0.017 C 
ATOM     18  C   UNL     1      -3.586  -2.162  -1.162  0.00  0.00    +0.109 C 
ATOM     19  N   UNL     1      -2.790  -2.562   0.006  0.00  0.00    -0.176 NA
ATOM     20  C   UNL     1      -1.414  -2.061   0.129  0.00  0.00    +0.113 C 
BRANCH  15  22
ATOM     21  C   UNL     1      -0.019   1.526   0.010  0.00  0.00    +0.004 C 
ATOM     22  C   UNL     1       0.002  -0.004   0.002  0.00  0.00    +0.001 C 
ENDBRANCH  15  22
ENDBRANCH   1  19
TORSDOF 4
