REMARK  Name = ZINC43741407
REMARK  7 active torsions:
REMARK  status: ('A' for Active; 'I' for Inactive)
REMARK    1  A    between atoms: C_1  and  C_2
REMARK    2  A    between atoms: N_6  and  N_7
REMARK    3  A    between atoms: N_7  and  C_8
REMARK    4  A    between atoms: C_8  and  N_10
REMARK    5  A    between atoms: C_22  and  C_35
REMARK    6  A    between atoms: C_23  and  O_34
REMARK    7  A    between atoms: C_26  and  C_28
REMARK                            x       y       z     vdW  Elec       q    Type
REMARK                         _______ _______ _______ _____ _____    ______ ____
ROOT
ATOM      1  C   UNL     1      -0.285   1.349   0.055  0.00  0.00    +0.012 C 
ATOM      2  C   UNL     1      -0.292  -0.175   0.127  0.00  0.00    -0.025 C 
ATOM      3  C   UNL     1       0.469  -0.743  -1.082  0.00  0.00    +0.013 C 
ATOM      4  C   UNL     1       1.923  -0.276  -1.089  0.00  0.00    +0.053 C 
ATOM      5  C   UNL     1       2.546  -0.634   0.243  0.00  0.00    +0.037 C 
ATOM      6  N   UNL     1       3.645  -1.287   0.303  0.00  0.00    -0.190 NA
ATOM      7  C   UNL     1       1.827  -0.196   1.496  0.00  0.00    +0.056 C 
ATOM      8  C   UNL     1       0.365  -0.650   1.421  0.00  0.00    +0.001 C 
ATOM      9  C   UNL     1      -0.365  -0.116   2.654  0.00  0.00    +0.005 C 
ATOM     10  C   UNL     1      -1.881  -0.286   2.496  0.00  0.00    +0.007 C 
ATOM     11  C   UNL     1      -2.145  -1.298   1.396  0.00  0.00    +0.025 C 
ATOM     12  C   UNL     1      -1.719  -0.724   0.040  0.00  0.00    +0.001 C 
ATOM     13  C   UNL     1      -2.715   0.281  -0.506  0.00  0.00    +0.005 C 
ATOM     14  C   UNL     1      -4.118  -0.357  -0.625  0.00  0.00    +0.010 C 
ATOM     15  C   UNL     1      -4.551  -0.789   0.756  0.00  0.00    +0.004 C 
ATOM     16  C   UNL     1      -3.544  -1.825   1.298  0.00  0.00    +0.075 C 
ATOM     17  C   UNL     1      -4.242  -2.275   2.590  0.00  0.00    +0.036 C 
ATOM     18  C   UNL     1      -5.705  -2.475   2.099  0.00  0.00    +0.011 C 
ATOM     19  C   UNL     1      -5.888  -1.530   0.882  0.00  0.00    +0.027 C 
ATOM     20  C   UNL     1      -4.675   0.442   1.665  0.00  0.00    +0.014 C 
ENDROOT
BRANCH  19  21
ATOM     21  C   UNL     1      -6.242  -2.300  -0.364  0.00  0.00    -0.022 C 
ATOM     22  C   UNL     1      -7.320  -2.126  -1.125  0.00  0.00    +0.094 C 
ATOM     23  C   UNL     1      -7.279  -3.079  -2.238  0.00  0.00    +0.332 C 
ATOM     24  O   UNL     1      -8.120  -3.173  -3.110  0.00  0.00    -0.246 OA
ATOM     25  O   UNL     1      -6.169  -3.835  -2.149  0.00  0.00    -0.457 OA
ATOM     26  C   UNL     1      -5.438  -3.414  -0.993  0.00  0.00    +0.264 C 
ENDBRANCH  19  21
BRANCH   6  27
ATOM     27  N   UNL     1       4.240  -1.768  -0.871  0.00  0.00    -0.219 N 
ATOM     28  H   UNL     1       3.860  -1.542  -1.734  0.00  0.00    +0.176 HD
BRANCH  27  29
ATOM     29  C   UNL     1       5.339  -2.544  -0.800  0.00  0.00    +0.147 C 
ATOM     30  S   UNL     1       6.066  -3.132  -2.234  0.00  0.00    -0.017 S 
BRANCH  29  31
ATOM     31  N   UNL     1       5.866  -2.858   0.400  0.00  0.00    -0.339 N 
ATOM     32  H   UNL     1       5.454  -2.525   1.213  0.00  0.00    +0.144 HD
ATOM     33  H   UNL     1       6.657  -3.417   0.451  0.00  0.00    +0.144 HD
ENDBRANCH  29  31
ENDBRANCH  27  29
ENDBRANCH   6  27
BRANCH  16  34
ATOM     34  O   UNL     1      -3.514  -2.970   0.409  0.00  0.00    -0.388 OA
ATOM     35  H   UNL     1      -2.932  -3.682   0.705  0.00  0.00    +0.210 HD
ENDBRANCH  16  34
TORSDOF 5
