REMARK  Name = ZINC67222325
REMARK  9 active torsions:
REMARK  status: ('A' for Active; 'I' for Inactive)
REMARK    1  A    between atoms: C_1  and  C_2
REMARK    2  A    between atoms: C_2  and  C_3
REMARK    3  A    between atoms: C_2  and  C_4
REMARK    4  A    between atoms: C_2  and  C_5
REMARK    5  A    between atoms: C_8  and  N_11
REMARK    6  A    between atoms: C_14  and  N_17
REMARK    7  A    between atoms: N_17  and  C_18
REMARK    8  A    between atoms: C_18  and  C_19
REMARK    9  A    between atoms: C_24  and  C_25
REMARK                            x       y       z     vdW  Elec       q    Type
REMARK                         _______ _______ _______ _____ _____    ______ ____
ROOT
ATOM      1  N   UNL     1       1.978  -2.682  -4.759  0.00  0.00    -0.330 N 
ATOM      2  C   UNL     1       1.514  -3.472  -5.907  0.00  0.00    +0.103 C 
ATOM      3  C   UNL     1       2.526  -4.589  -6.179  0.00  0.00    +0.003 C 
ATOM      4  C   UNL     1       3.917  -3.978  -6.359  0.00  0.00    -0.068 C 
ATOM      5  C   UNL     1       4.329  -3.256  -5.074  0.00  0.00    +0.003 C 
ATOM      6  C   UNL     1       3.335  -2.119  -4.792  0.00  0.00    +0.103 C 
ENDROOT
BRANCH   1  10
ATOM      7  C   UNL     1      -0.509  -2.035  -1.483  0.00  0.00    -0.042 A 
ATOM      8  C   UNL     1       0.804  -1.601  -1.449  0.00  0.00    +0.006 A 
ATOM      9  C   UNL     1       1.632  -1.814  -2.534  0.00  0.00    +0.023 A 
ATOM     10  C   UNL     1       1.144  -2.465  -3.660  0.00  0.00    +0.030 A 
ATOM     11  C   UNL     1      -0.175  -2.899  -3.691  0.00  0.00    +0.023 A 
ATOM     12  C   UNL     1      -0.996  -2.688  -2.600  0.00  0.00    +0.006 A 
BRANCH   7  14
ATOM     13  C   UNL     1      -1.900  -3.144   0.244  0.00  0.00    +0.015 C 
ATOM     14  C   UNL     1      -1.409  -1.800  -0.297  0.00  0.00    -0.013 C 
ATOM     15  C   UNL     1      -2.609  -0.954  -0.727  0.00  0.00    +0.015 C 
ATOM     16  C   UNL     1      -0.631  -1.064   0.796  0.00  0.00    +0.015 C 
ENDBRANCH   7  14
ENDBRANCH   1  10
BRANCH   4  17
ATOM     17  N   UNL     1       4.885  -5.044  -6.653  0.00  0.00    +0.384 N 
ATOM     18  H   UNL     1       4.963  -5.657  -5.855  0.00  0.00    -0.085 HD
ATOM     19  H   UNL     1       4.571  -5.572  -7.453  0.00  0.00    -0.085 HD
BRANCH  17  20
ATOM     20  C   UNL     1       6.196  -4.448  -6.943  0.00  0.00    -0.043 C 
BRANCH  20  21
ATOM     21  C   UNL     1       7.156  -5.529  -7.369  0.00  0.00    -0.019 A 
ATOM     22  C   UNL     1       8.134  -6.069  -6.609  0.00  0.00    +0.107 A 
ATOM     23  N   UNL     1       8.770  -7.002  -7.350  0.00  0.00    -0.284 N 
ATOM     24  H   UNL     1       9.516  -7.549  -7.058  0.00  0.00    +0.188 HD
ATOM     25  N   UNL     1       8.167  -7.041  -8.614  0.00  0.00    -0.174 NA
ATOM     26  C   UNL     1       7.189  -6.159  -8.628  0.00  0.00    +0.095 A 
BRANCH  26  27
ATOM     27  C   UNL     1       6.285  -5.877  -9.770  0.00  0.00    +0.020 A 
ATOM     28  C   UNL     1       5.955  -4.561 -10.106  0.00  0.00    +0.013 A 
ATOM     29  C   UNL     1       5.107  -4.350 -11.180  0.00  0.00    +0.020 A 
ATOM     30  C   UNL     1       4.619  -5.438 -11.880  0.00  0.00    +0.111 A 
ATOM     31  N   UNL     1       4.948  -6.669 -11.540  0.00  0.00    -0.263 NA
ATOM     32  C   UNL     1       5.756  -6.918 -10.529  0.00  0.00    +0.120 A 
ENDBRANCH  26  27
ENDBRANCH  20  21
ENDBRANCH  17  20
ENDBRANCH   4  17
TORSDOF 6
