REMARK  Name = ZINC21708673
REMARK  8 active torsions:
REMARK  status: ('A' for Active; 'I' for Inactive)
REMARK    1  A    between atoms: C_1  and  C_2
REMARK    2  A    between atoms: C_2  and  O_3
REMARK    3  A    between atoms: O_3  and  C_4
REMARK    4  A    between atoms: C_4  and  C_6
REMARK    5  A    between atoms: C_15  and  N_27
REMARK    6  A    between atoms: C_16  and  C_20
REMARK    7  A    between atoms: C_23  and  O_26
REMARK    8  A    between atoms: N_27  and  C_28
REMARK                            x       y       z     vdW  Elec       q    Type
REMARK                         _______ _______ _______ _____ _____    ______ ____
ROOT
ATOM      1  C   UNL     1       3.449  -3.919  -1.066  0.00  0.00    +0.101 C 
ATOM      2  C   UNL     1       2.466  -3.838   0.105  0.00  0.00    +0.033 C 
ATOM      3  C   UNL     1       1.626  -2.566  -0.027  0.00  0.00    +0.108 C 
ATOM      4  N   UNL     1       2.510  -1.393  -0.029  0.00  0.00    -0.308 N 
ATOM      5  C   UNL     1       3.431  -1.424  -1.173  0.00  0.00    +0.108 C 
ATOM      6  C   UNL     1       4.325  -2.663  -1.075  0.00  0.00    +0.033 C 
ATOM      7  C   UNL     1       1.775  -0.218  -0.016  0.00  0.00    +0.184 A 
ATOM      8  N   UNL     1       2.201   1.015  -0.013  0.00  0.00    -0.140 NA
ATOM      9  N   UNL     1       1.314   2.087   0.001  0.00  0.00    -0.192 N 
ATOM     10  C   UNL     1       1.364   3.474   0.008  0.00  0.00    +0.147 A 
ATOM     11  C   UNL     1       0.081   3.932   0.022  0.00  0.00    +0.089 A 
ATOM     12  N   UNL     1      -0.745   2.853   0.029  0.00  0.00    -0.331 N 
ATOM     13  C   UNL     1      -0.022   1.774   0.012  0.00  0.00    +0.177 A 
ATOM     14  S   UNL     1       0.002  -0.004   0.002  0.00  0.00    -0.015 S 
ATOM     15  H   UNL     1      -1.836   2.995   0.046  0.00  0.00    +0.168 HD
ENDROOT
BRANCH  11  16
ATOM     16  C   UNL     1      -0.339   5.352   0.034  0.00  0.00    +0.002 A 
ATOM     17  C   UNL     1       0.414   6.298   0.729  0.00  0.00    +0.013 A 
ATOM     18  C   UNL     1       0.024   7.621   0.732  0.00  0.00    +0.046 A 
ATOM     19  C   UNL     1      -1.124   8.010   0.055  0.00  0.00    +0.117 A 
ATOM     20  C   UNL     1      -1.880   7.070  -0.632  0.00  0.00    +0.046 A 
ATOM     21  C   UNL     1      -1.492   5.746  -0.645  0.00  0.00    +0.013 A 
BRANCH  19  22
ATOM     22  O   UNL     1      -1.509   9.313   0.066  0.00  0.00    -0.507 OA
ATOM     23  H   UNL     1      -2.418   9.623  -0.470  0.00  0.00    +0.292 HD
ENDBRANCH  19  22
ENDBRANCH  11  16
BRANCH   1  24
ATOM     24  C   UNL     1       4.319  -5.139  -0.911  0.00  0.00    +0.310 C 
ATOM     25  O   UNL     1       4.169  -5.871   0.039  0.00  0.00    -0.251 OA
BRANCH  24  26
ATOM     26  O   UNL     1       5.260  -5.414  -1.827  0.00  0.00    -0.465 OA
BRANCH  26  28
ATOM     27  C   UNL     1       7.072  -6.753  -2.752  0.00  0.00    +0.048 C 
ATOM     28  C   UNL     1       6.061  -6.606  -1.613  0.00  0.00    +0.229 C 
ENDBRANCH  26  28
ENDBRANCH  24  26
ENDBRANCH   1  24
BRANCH  10  29
ATOM     29  N   UNL     1       2.521   4.259   0.000  0.00  0.00    -0.324 N 
ATOM     30  H   UNL     1       2.614   5.355   0.005  0.00  0.00    +0.148 HD
BRANCH  29  31
ATOM     31  C   UNL     1       3.727   3.420  -0.016  0.00  0.00    +0.072 C 
ATOM     32  C   UNL     1       4.088   3.018   1.415  0.00  0.00    +0.022 C 
ATOM     33  C   UNL     1       5.343   2.144   1.399  0.00  0.00    +0.002 C 
ATOM     34  C   UNL     1       6.503   2.929   0.781  0.00  0.00    +0.000 C 
ATOM     35  C   UNL     1       6.142   3.330  -0.650  0.00  0.00    +0.002 C 
ATOM     36  C   UNL     1       4.886   4.205  -0.633  0.00  0.00    +0.022 C 
ENDBRANCH  29  31
ENDBRANCH  10  29
TORSDOF 7
