REMARK  Name = ZINC34855079
REMARK  5 active torsions:
REMARK  status: ('A' for Active; 'I' for Inactive)
REMARK    1  A    between atoms: C_1  and  C_2
REMARK    2  A    between atoms: C_6  and  C_8
REMARK    3  A    between atoms: C_8  and  N_9
REMARK    4  A    between atoms: C_12  and  O_15
REMARK    5  A    between atoms: C_25  and  O_27
REMARK                            x       y       z     vdW  Elec       q    Type
REMARK                         _______ _______ _______ _____ _____    ______ ____
ROOT
ATOM      1  C   UNL     1      -0.018   1.503   0.010  0.00  0.00    +0.045 C 
ATOM      2  C   UNL     1       0.002  -0.004   0.002  0.00  0.00    -0.031 A 
ATOM      3  C   UNL     1      -0.096  -0.698  -1.167  0.00  0.00    +0.048 A 
ATOM      4  C   UNL     1      -0.074  -2.105  -1.149  0.00  0.00    +0.126 A 
ATOM      5  N   UNL     1      -0.172  -2.784  -2.312  0.00  0.00    -0.272 N 
ATOM      6  C   UNL     1      -0.152  -4.105  -2.308  0.00  0.00    +0.202 C 
ATOM      7  O   UNL     1      -0.046  -4.710  -1.257  0.00  0.00    -0.278 OA
ATOM      8  N   UNL     1       0.042  -2.779  -0.005  0.00  0.00    -0.231 NA
ATOM      9  C   UNL     1       0.140  -2.150   1.151  0.00  0.00    +0.091 A 
ATOM     10  C   UNL     1       0.269  -2.877   2.427  0.00  0.00    +0.044 A 
ATOM     11  C   UNL     1       0.294  -4.270   2.467  0.00  0.00    +0.014 A 
ATOM     12  C   UNL     1       0.417  -4.915   3.678  0.00  0.00    +0.001 A 
ATOM     13  C   UNL     1       0.514  -4.183   4.852  0.00  0.00    +0.004 A 
ATOM     14  C   UNL     1       0.490  -2.805   4.825  0.00  0.00    +0.047 A 
ATOM     15  C   UNL     1       0.368  -2.134   3.614  0.00  0.00    +0.141 A 
ATOM     16  O   UNL     1       0.345  -0.785   3.580  0.00  0.00    -0.424 OA
ATOM     17  C   UNL     1       0.230  -0.091   2.446  0.00  0.00    +0.294 A 
ATOM     18  C   UNL     1       0.129  -0.732   1.202  0.00  0.00    +0.084 A 
ATOM     19  H   UNL     1      -0.256  -2.302  -3.149  0.00  0.00    +0.156 HD
ENDROOT
BRANCH  17  20
ATOM     20  O   UNL     1       0.215   1.251   2.496  0.00  0.00    -0.480 OA
ATOM     21  H   UNL     1       0.293   1.613   3.390  0.00  0.00    +0.295 HD
ENDBRANCH  17  20
BRANCH   6  22
ATOM     22  C   UNL     1      -0.261  -4.864  -3.606  0.00  0.00    +0.019 C 
BRANCH  22  23
ATOM     23  N   UNL     1      -0.215  -6.307  -3.336  0.00  0.00    +0.386 N 
ATOM     24  C   UNL     1       1.097  -6.657  -2.780  0.00  0.00    -0.076 C 
ATOM     25  C   UNL     1       1.123  -8.145  -2.421  0.00  0.00    +0.013 C 
ATOM     26  C   UNL     1       0.862  -8.973  -3.683  0.00  0.00    +0.111 C 
ATOM     27  C   UNL     1      -0.475  -8.547  -4.295  0.00  0.00    +0.013 C 
ATOM     28  C   UNL     1      -0.441  -7.045  -4.584  0.00  0.00    -0.076 C 
ATOM     29  H   UNL     1      -0.935  -6.546  -2.670  0.00  0.00    -0.081 HD
BRANCH  26  30
ATOM     30  O   UNL     1       0.811 -10.360  -3.341  0.00  0.00    -0.392 OA
ATOM     31  H   UNL     1       0.648 -10.945  -4.094  0.00  0.00    +0.210 HD
ENDBRANCH  26  30
ENDBRANCH  22  23
ENDBRANCH   6  22
TORSDOF 4
