REMARK  Name = ZINC33629008
REMARK  11 active torsions:
REMARK  status: ('A' for Active; 'I' for Inactive)
REMARK    1  A    between atoms: C_1  and  C_2
REMARK    2  A    between atoms: C_3  and  C_33
REMARK    3  A    between atoms: C_4  and  C_27
REMARK    4  A    between atoms: C_10  and  C_11
REMARK    5  A    between atoms: C_14  and  O_19
REMARK    6  A    between atoms: C_15  and  O_17
REMARK    7  A    between atoms: O_17  and  C_18
REMARK    8  A    between atoms: O_19  and  C_20
REMARK    9  A    between atoms: C_20  and  C_21
REMARK   10  A    between atoms: C_33  and  O_35
REMARK   11  A    between atoms: O_35  and  C_36
REMARK                            x       y       z     vdW  Elec       q    Type
REMARK                         _______ _______ _______ _____ _____    ______ ____
ROOT
ATOM      1  C   UNL     1      -7.615   3.507   0.138  0.00  0.00    +0.066 C 
ATOM      2  C   UNL     1      -6.711   2.314   0.313  0.00  0.00    +0.053 C 
ATOM      3  C   UNL     1      -7.249   1.095   0.621  0.00  0.00    +0.085 C 
ATOM      4  C   UNL     1      -6.309  -0.076   0.788  0.00  0.00    +0.162 C 
ATOM      5  N   UNL     1      -4.854   0.188   0.603  0.00  0.00    -0.275 N 
ATOM      6  C   UNL     1      -3.872  -0.716   0.703  0.00  0.00    +0.268 A 
ATOM      7  O   UNL     1      -4.115  -1.879   0.967  0.00  0.00    -0.266 OA
ATOM      8  C   UNL     1      -2.491  -0.261   0.490  0.00  0.00    +0.081 A 
ATOM      9  C   UNL     1      -1.332  -0.968   0.538  0.00  0.00    +0.028 C 
ATOM     10  S   UNL     1      -2.750   1.472   0.143  0.00  0.00    -0.046 S 
ATOM     11  C   UNL     1      -4.526   1.489   0.296  0.00  0.00    +0.178 A 
ATOM     12  N   UNL     1      -5.400   2.455   0.167  0.00  0.00    -0.228 NA
ENDROOT
BRANCH   9  13
ATOM     13  C   UNL     1      -0.072  -0.341   0.118  0.00  0.00    -0.020 A 
ATOM     14  C   UNL     1      -0.092   0.812  -0.676  0.00  0.00    +0.012 A 
ATOM     15  C   UNL     1       1.092   1.398  -1.067  0.00  0.00    +0.050 A 
ATOM     16  C   UNL     1       2.306   0.848  -0.677  0.00  0.00    +0.163 A 
ATOM     17  C   UNL     1       2.334  -0.300   0.114  0.00  0.00    +0.162 A 
ATOM     18  C   UNL     1       1.153  -0.895   0.511  0.00  0.00    +0.057 A 
BRANCH  17  19
ATOM     19  O   UNL     1       3.525  -0.835   0.494  0.00  0.00    -0.491 OA
ATOM     20  C   UNL     1       3.480  -2.011   1.304  0.00  0.00    +0.277 C 
ENDBRANCH  17  19
BRANCH  16  21
ATOM     21  O   UNL     1       3.470   1.430  -1.067  0.00  0.00    -0.479 OA
BRANCH  21  22
ATOM     22  C   UNL     1       3.369   2.603  -1.876  0.00  0.00    +0.324 C 
BRANCH  22  23
ATOM     23  C   UNL     1       4.750   3.105  -2.209  0.00  0.00    +0.248 C 
ATOM     24  O   UNL     1       5.726   2.515  -1.794  0.00  0.00    -0.272 OA
ATOM     25  N   UNL     1       4.902   4.208  -2.968  0.00  0.00    -0.327 N 
ATOM     26  H   UNL     1       5.911   4.574  -3.210  0.00  0.00    +0.145 HD
ATOM     27  H   UNL     1       4.018   4.743  -3.344  0.00  0.00    +0.145 HD
ENDBRANCH  22  23
ENDBRANCH  21  22
ENDBRANCH  16  21
ENDBRANCH   9  13
BRANCH   4  28
ATOM     28  C   UNL     1      -6.506  -0.635   2.173  0.00  0.00    -0.020 A 
ATOM     29  C   UNL     1      -5.785  -0.121   3.235  0.00  0.00    +0.006 A 
ATOM     30  C   UNL     1      -5.969  -0.631   4.506  0.00  0.00    +0.000 A 
ATOM     31  C   UNL     1      -6.867  -1.661   4.715  0.00  0.00    +0.000 A 
ATOM     32  C   UNL     1      -7.585  -2.178   3.653  0.00  0.00    +0.000 A 
ATOM     33  C   UNL     1      -7.404  -1.665   2.382  0.00  0.00    +0.006 A 
ENDBRANCH   4  28
BRANCH   3  34
ATOM     34  C   UNL     1      -8.636   0.937   0.778  0.00  0.00    +0.339 C 
ATOM     35  O   UNL     1      -9.366   1.912   0.764  0.00  0.00    -0.245 OA
BRANCH  34  36
ATOM     36  O   UNL     1      -9.160  -0.297   0.943  0.00  0.00    -0.465 OA
ATOM     37  C   UNL     1     -10.578  -0.384   1.097  0.00  0.00    +0.280 C 
ENDBRANCH  34  36
ENDBRANCH   3  34
TORSDOF 8
