REMARK  Name = ZINC01834449
REMARK  13 active torsions:
REMARK  status: ('A' for Active; 'I' for Inactive)
REMARK    1  A    between atoms: C_1  and  C_2
REMARK    2  A    between atoms: C_5  and  N_8
REMARK    3  A    between atoms: N_8  and  C_9
REMARK    4  A    between atoms: N_8  and  S_28
REMARK    5  A    between atoms: C_9  and  C_10
REMARK    6  A    between atoms: C_10  and  C_12
REMARK    7  A    between atoms: C_10  and  O_27
REMARK    8  A    between atoms: C_12  and  N_68
REMARK    9  A    between atoms: C_13  and  C_14
REMARK   10  A    between atoms: C_13  and  N_68
REMARK   11  A    between atoms: C_20  and  C_21
REMARK   12  A    between atoms: C_20  and  N_68
REMARK   13  A    between atoms: S_28  and  C_31
REMARK                            x       y       z     vdW  Elec       q    Type
REMARK                         _______ _______ _______ _____ _____    ______ ____
ROOT
ATOM      1  C   UNL     1       6.944  -1.559  -1.987  0.00  0.00    +0.117 C 
ENDROOT
BRANCH   1   2
ATOM      2  O   UNL     1       7.494  -1.712  -0.677  0.00  0.00    -0.392 OA
ATOM      3  H   UNL     1       7.247  -1.008  -0.062  0.00  0.00    +0.210 HD
ENDBRANCH   1   2
BRANCH   1   4
ATOM      4  C   UNL     1       5.417  -1.551  -1.901  0.00  0.00    +0.161 C 
BRANCH   4   5
ATOM      5  N   UNL     1       4.953  -2.814  -1.321  0.00  0.00    -0.201 N 
BRANCH   5  10
ATOM      6  C   UNL     1       4.198  -7.348  -4.643  0.00  0.00    +0.044 C 
ATOM      7  C   UNL     1       4.399  -6.143  -3.760  0.00  0.00    -0.050 A 
ATOM      8  C   UNL     1       3.687  -6.026  -2.580  0.00  0.00    +0.005 A 
ATOM      9  C   UNL     1       3.869  -4.923  -1.769  0.00  0.00    +0.025 A 
ATOM     10  C   UNL     1       4.768  -3.931  -2.139  0.00  0.00    +0.051 A 
ATOM     11  C   UNL     1       5.477  -4.049  -3.328  0.00  0.00    +0.025 A 
ATOM     12  C   UNL     1       5.294  -5.157  -4.132  0.00  0.00    +0.005 A 
ENDBRANCH   5  10
BRANCH   5  13
ATOM     13  S   UNL     1       4.650  -2.918   0.303  0.00  0.00    +0.075 S 
ATOM     14  O   UNL     1       5.438  -1.914   0.928  0.00  0.00    -0.150 OA
ATOM     15  O   UNL     1       4.754  -4.292   0.649  0.00  0.00    -0.150 OA
BRANCH  13  16
ATOM     16  C   UNL     1       2.966  -2.462   0.549  0.00  0.00    +0.109 A 
ATOM     17  C   UNL     1       1.994  -3.440   0.653  0.00  0.00    +0.029 A 
ATOM     18  C   UNL     1       0.672  -3.082   0.846  0.00  0.00    +0.002 A 
ATOM     19  C   UNL     1       0.323  -1.748   0.935  0.00  0.00    +0.000 A 
ATOM     20  C   UNL     1       1.295  -0.771   0.831  0.00  0.00    +0.002 A 
ATOM     21  C   UNL     1       2.617  -1.128   0.638  0.00  0.00    +0.029 A 
ENDBRANCH  13  16
ENDBRANCH   5  13
ENDBRANCH   4   5
ENDBRANCH   1   4
BRANCH   1  22
ATOM     22  C   UNL     1       7.428  -0.239  -2.592  0.00  0.00    -0.045 C 
BRANCH  22  23
ATOM     23  N   UNL     1       8.895  -0.302  -2.761  0.00  0.00    +0.387 N 
ATOM     24  H   UNL     1       9.321  -0.586  -1.871  0.00  0.00    -0.081 HD
BRANCH  23  25
ATOM     25  C   UNL     1       9.242  -1.295  -3.799  0.00  0.00    -0.042 C 
BRANCH  25  26
ATOM     26  C   UNL     1      10.711  -1.615  -3.690  0.00  0.00    -0.064 A 
ATOM     27  C   UNL     1      11.619  -0.985  -4.520  0.00  0.00    +0.002 A 
ATOM     28  C   UNL     1      12.966  -1.274  -4.417  0.00  0.00    +0.000 A 
ATOM     29  C   UNL     1      13.405  -2.203  -3.491  0.00  0.00    +0.000 A 
ATOM     30  C   UNL     1      12.496  -2.838  -2.665  0.00  0.00    +0.000 A 
ATOM     31  C   UNL     1      11.149  -2.544  -2.765  0.00  0.00    +0.002 A 
ENDBRANCH  25  26
ENDBRANCH  23  25
BRANCH  23  32
ATOM     32  C   UNL     1       9.417   1.028  -3.140  0.00  0.00    -0.042 C 
BRANCH  32  33
ATOM     33  C   UNL     1       9.473   1.894  -1.908  0.00  0.00    -0.064 A 
ATOM     34  C   UNL     1       8.408   2.716  -1.591  0.00  0.00    +0.002 A 
ATOM     35  C   UNL     1       8.458   3.506  -0.458  0.00  0.00    +0.000 A 
ATOM     36  C   UNL     1       9.577   3.482   0.353  0.00  0.00    +0.000 A 
ATOM     37  C   UNL     1      10.645   2.664   0.033  0.00  0.00    +0.000 A 
ATOM     38  C   UNL     1      10.593   1.870  -1.097  0.00  0.00    +0.002 A 
ENDBRANCH  32  33
ENDBRANCH  23  32
ENDBRANCH  22  23
ENDBRANCH   1  22
TORSDOF 12
