REMARK  Name = ZINC04526854
REMARK  7 active torsions:
REMARK  status: ('A' for Active; 'I' for Inactive)
REMARK    1  A    between atoms: C_1  and  C_2
REMARK    2  A    between atoms: C_5  and  C_8
REMARK    3  A    between atoms: C_14  and  C_16
REMARK    4  A    between atoms: C_22  and  C_24
REMARK    5  A    between atoms: C_24  and  C_25
REMARK    6  A    between atoms: C_24  and  C_26
REMARK    7  A    between atoms: C_24  and  C_27
REMARK                            x       y       z     vdW  Elec       q    Type
REMARK                         _______ _______ _______ _____ _____    ______ ____
ROOT
ATOM      1  C   UNL     1      -2.427   3.912   0.314  0.00  0.00    +0.134 A 
ATOM      2  N   UNL     1      -2.674   5.215   0.365  0.00  0.00    -0.140 NA
ATOM      3  N   UNL     1      -3.857   5.644   0.272  0.00  0.00    -0.125 NA
ATOM      4  C   UNL     1      -4.890   4.828   0.135  0.00  0.00    +0.188 A 
ATOM      5  S   UNL     1      -4.092   3.283   0.129  0.00  0.00    -0.030 S 
ATOM      6  N   UNL     1      -6.243   5.125   0.026  0.00  0.00    -0.262 N 
ATOM      7  C   UNL     1      -6.656   6.407   0.055  0.00  0.00    +0.239 C 
ATOM      8  O   UNL     1      -5.847   7.303   0.175  0.00  0.00    -0.273 OA
ATOM      9  H   UNL     1      -6.890   4.409  -0.070  0.00  0.00    +0.157 HD
ENDROOT
BRANCH   1  14
ATOM     10  C   UNL     1       2.575   1.084   0.628  0.00  0.00    +0.044 C 
ATOM     11  C   UNL     1       1.265   1.825   0.547  0.00  0.00    -0.050 A 
ATOM     12  C   UNL     1       0.084   1.120   0.402  0.00  0.00    +0.004 A 
ATOM     13  C   UNL     1      -1.119   1.792   0.320  0.00  0.00    +0.011 A 
ATOM     14  C   UNL     1      -1.142   3.185   0.395  0.00  0.00    +0.009 A 
ATOM     15  C   UNL     1       0.053   3.890   0.541  0.00  0.00    +0.011 A 
ATOM     16  C   UNL     1       1.249   3.206   0.617  0.00  0.00    +0.004 A 
ENDBRANCH   1  14
BRANCH   7  17
ATOM     17  C   UNL     1      -8.123   6.729  -0.063  0.00  0.00    +0.162 C 
ATOM     18  C   UNL     1      -8.661   6.236  -1.423  0.00  0.00    +0.033 C 
ATOM     19  C   UNL     1      -9.647   7.365  -1.835  0.00  0.00    +0.021 C 
ATOM     20  C   UNL     1      -8.929   8.622  -1.284  0.00  0.00    +0.108 C 
ATOM     21  N   UNL     1      -8.322   8.185  -0.014  0.00  0.00    -0.289 N 
ATOM     22  C   UNL     1      -8.002   8.987   1.021  0.00  0.00    +0.222 C 
ATOM     23  O   UNL     1      -7.578   8.507   2.051  0.00  0.00    -0.275 OA
BRANCH  22  24
ATOM     24  C   UNL     1      -8.170  10.479   0.898  0.00  0.00    +0.039 C 
ATOM     25  C   UNL     1      -7.513  11.167   2.096  0.00  0.00    +0.020 C 
ATOM     26  C   UNL     1      -7.507  10.962  -0.394  0.00  0.00    +0.020 C 
ATOM     27  C   UNL     1      -9.660  10.824   0.866  0.00  0.00    +0.020 C 
ENDBRANCH  22  24
ENDBRANCH   7  17
TORSDOF 3
