REMARK  Name = ZINC00752518
REMARK  4 active torsions:
REMARK  status: ('A' for Active; 'I' for Inactive)
REMARK    1  A    between atoms: C_4  and  C_7
REMARK    2  A    between atoms: C_12  and  C_20
REMARK    3  A    between atoms: C_14  and  C_18
REMARK    4  A    between atoms: C_15  and  N_17
REMARK                            x       y       z     vdW  Elec       q    Type
REMARK                         _______ _______ _______ _____ _____    ______ ____
ROOT
ATOM      1  C   UNL     1      -3.927   1.636   3.402  0.00  0.00    +0.034 C 
ATOM      2  C   UNL     1      -3.884   0.460   2.434  0.00  0.00    +0.083 C 
ATOM      3  C   UNL     1      -3.115   0.848   1.193  0.00  0.00    +0.115 C 
ATOM      4  C   UNL     1      -2.108   1.734   1.258  0.00  0.00    +0.046 C 
ATOM      5  C   UNL     1      -1.332   2.114   0.020  0.00  0.00    +0.102 C 
ATOM      6  C   UNL     1      -2.116   1.750  -1.210  0.00  0.00    +0.098 C 
ATOM      7  C   UNL     1      -3.134   0.858  -1.134  0.00  0.00    +0.198 C 
ATOM      8  O   UNL     1      -3.467   0.274   0.027  0.00  0.00    -0.445 OA
ATOM      9  C   UNL     1      -1.746   2.338   2.478  0.00  0.00    +0.164 C 
ATOM     10  O   UNL     1      -0.820   3.123   2.503  0.00  0.00    -0.292 OA
ATOM     11  C   UNL     1      -2.487   2.027   3.750  0.00  0.00    +0.088 C 
ENDROOT
BRANCH   5  12
ATOM     12  C   UNL     1      -0.017   1.378   0.010  0.00  0.00    -0.016 A 
ATOM     13  C   UNL     1       0.002  -0.004   0.002  0.00  0.00    +0.007 A 
ATOM     14  C   UNL     1       1.208  -0.679  -0.013  0.00  0.00    +0.020 A 
ATOM     15  C   UNL     1       2.397   0.028  -0.020  0.00  0.00    +0.042 A 
ATOM     16  C   UNL     1       2.379   1.411  -0.013  0.00  0.00    +0.040 A 
ATOM     17  C   UNL     1       1.172   2.086   0.002  0.00  0.00    +0.046 A 
ATOM     18 CL   UNL     1       1.148   3.822   0.011  0.00  0.00    -0.083 Cl
ATOM     19 CL   UNL     1       3.912  -0.820  -0.039  0.00  0.00    -0.083 Cl
ENDBRANCH   5  12
BRANCH   1  23
ATOM     20  C   UNL     1      -6.004   0.494   6.955  0.00  0.00    +0.000 A 
ATOM     21  C   UNL     1      -6.462   1.556   6.198  0.00  0.00    +0.000 A 
ATOM     22  C   UNL     1      -5.790   1.925   5.048  0.00  0.00    +0.004 A 
ATOM     23  C   UNL     1      -4.660   1.233   4.656  0.00  0.00    -0.043 A 
ATOM     24  C   UNL     1      -4.204   0.168   5.410  0.00  0.00    +0.004 A 
ATOM     25  C   UNL     1      -4.874  -0.199   6.563  0.00  0.00    +0.000 A 
ENDBRANCH   1  23
BRANCH   7  26
ATOM     26  N   UNL     1      -3.839   0.545  -2.270  0.00  0.00    -0.328 N 
ATOM     27  H   UNL     1      -3.607   0.961  -3.115  0.00  0.00    +0.145 HD
ATOM     28  H   UNL     1      -4.570  -0.092  -2.227  0.00  0.00    +0.145 HD
ENDBRANCH   7  26
BRANCH   6  29
ATOM     29  C   UNL     1      -1.786   2.348  -2.468  0.00  0.00    +0.101 C 
ATOM     30  N   UNL     1      -1.524   2.822  -3.466  0.00  0.00    -0.191 NA
ENDBRANCH   6  29
TORSDOF 4
