REMARK  Name = ZINC09645691
REMARK  5 active torsions:
REMARK  status: ('A' for Active; 'I' for Inactive)
REMARK    1  A    between atoms: C_4  and  C_7
REMARK    2  A    between atoms: C_10  and  C_12
REMARK    3  A    between atoms: C_12  and  C_14
REMARK    4  A    between atoms: C_12  and  N_21
REMARK    5  A    between atoms: N_21  and  C_22
REMARK                            x       y       z     vdW  Elec       q    Type
REMARK                         _______ _______ _______ _____ _____    ______ ____
ROOT
ATOM      1  C   UNL     1      -1.278   7.289   1.323  0.00  0.00    +0.192 C 
ENDROOT
BRANCH   1   2
ATOM      2  C   UNL     1      -0.007   8.018   0.971  0.00  0.00    +0.017 A 
ATOM      3  C   UNL     1       1.213   7.380   1.095  0.00  0.00    +0.009 A 
ATOM      4  C   UNL     1       2.379   8.046   0.768  0.00  0.00    +0.001 A 
ATOM      5  C   UNL     1       2.327   9.356   0.326  0.00  0.00    +0.003 A 
ATOM      6  C   UNL     1       1.109   9.998   0.207  0.00  0.00    +0.039 A 
ATOM      7  C   UNL     1      -0.060   9.329   0.530  0.00  0.00    +0.129 A 
ATOM      8  F   UNL     1      -1.251   9.956   0.414  0.00  0.00    -0.205 F 
ENDBRANCH   1   2
BRANCH   1  12
ATOM      9  C   UNL     1      -2.791   8.607   4.340  0.00  0.00    +0.248 A 
ATOM     10  N   UNL     1      -1.826   7.852   4.811  0.00  0.00    -0.107 NA
ATOM     11  N   UNL     1      -1.197   7.307   3.830  0.00  0.00    -0.110 NA
ATOM     12  C   UNL     1      -1.725   7.696   2.703  0.00  0.00    +0.242 A 
ATOM     13  O   UNL     1      -2.745   8.521   2.995  0.00  0.00    -0.418 OA
BRANCH   9  17
ATOM     14  C   UNL     1      -5.549  10.889   6.627  0.00  0.00    +0.000 A 
ATOM     15  C   UNL     1      -4.579  10.138   7.267  0.00  0.00    +0.001 A 
ATOM     16  C   UNL     1      -3.680   9.395   6.530  0.00  0.00    +0.013 A 
ATOM     17  C   UNL     1      -3.751   9.401   5.136  0.00  0.00    +0.038 A 
ATOM     18  C   UNL     1      -4.728  10.165   4.497  0.00  0.00    +0.013 A 
ATOM     19  C   UNL     1      -5.625  10.899   5.245  0.00  0.00    +0.001 A 
ENDBRANCH   9  17
ENDBRANCH   1  12
BRANCH   1  20
ATOM     20  N   UNL     1      -1.036   5.844   1.294  0.00  0.00    -0.329 N 
ATOM     21  H   UNL     1      -0.814   5.373   2.112  0.00  0.00    +0.147 HD
BRANCH  20  22
ATOM     22  C   UNL     1      -1.127   5.145   0.088  0.00  0.00    +0.031 A 
ATOM     23  C   UNL     1      -1.445   5.822  -1.079  0.00  0.00    +0.023 A 
ATOM     24  C   UNL     1      -1.534   5.128  -2.269  0.00  0.00    +0.002 A 
ATOM     25  C   UNL     1      -1.308   3.766  -2.290  0.00  0.00    +0.004 A 
ATOM     26  C   UNL     1      -0.990   3.083  -1.123  0.00  0.00    -0.042 A 
ATOM     27  C   UNL     1      -0.895   3.769   0.066  0.00  0.00    -0.023 A 
ATOM     28  C   UNL     1      -0.539   3.096   1.365  0.00  0.00    +0.037 C 
ATOM     29  C   UNL     1      -0.741   1.585   1.261  0.00  0.00    +0.005 C 
ATOM     30  C   UNL     1      -0.013   1.086   0.008  0.00  0.00    +0.005 C 
ATOM     31  C   UNL     1      -0.762   1.597  -1.221  0.00  0.00    +0.035 C 
ENDBRANCH  20  22
ENDBRANCH   1  20
TORSDOF 5
