REMARK  Name = ZINC04063954
REMARK  15 active torsions:
REMARK  status: ('A' for Active; 'I' for Inactive)
REMARK    1  A    between atoms: C_1  and  C_2
REMARK    2  A    between atoms: C_6  and  C_28
REMARK    3  A    between atoms: C_8  and  O_11
REMARK    4  A    between atoms: O_11  and  P_12
REMARK    5  A    between atoms: P_12  and  C_14
REMARK    6  A    between atoms: P_12  and  N_23
REMARK    7  A    between atoms: C_17  and  N_20
REMARK    8  A    between atoms: N_20  and  C_21
REMARK    9  A    between atoms: N_20  and  C_22
REMARK   10  A    between atoms: N_23  and  C_24
REMARK   11  A    between atoms: C_24  and  C_25
REMARK   12  A    between atoms: C_24  and  C_26
REMARK   13  A    between atoms: C_24  and  C_27
REMARK   14  A    between atoms: C_28  and  C_29
REMARK   15  A    between atoms: C_28  and  C_30
REMARK                            x       y       z     vdW  Elec       q    Type
REMARK                         _______ _______ _______ _____ _____    ______ ____
ROOT
ATOM      1  P   UNL     1      -1.037   2.964  -1.179  0.00  0.00    +0.302 P 
ATOM      2  O   UNL     1      -1.135   1.532  -0.822  0.00  0.00    -0.268 OA
ENDROOT
BRANCH   1   3
ATOM      3  C   UNL     1      -2.149   3.929  -0.119  0.00  0.00    +0.052 A 
ATOM      4  C   UNL     1      -2.617   5.158  -0.548  0.00  0.00    +0.016 A 
ATOM      5  C   UNL     1      -3.468   5.892   0.254  0.00  0.00    +0.024 A 
ATOM      6  C   UNL     1      -3.845   5.401   1.497  0.00  0.00    +0.029 A 
ATOM      7  C   UNL     1      -3.369   4.169   1.927  0.00  0.00    +0.024 A 
ATOM      8  C   UNL     1      -2.522   3.437   1.118  0.00  0.00    +0.016 A 
BRANCH   6   9
ATOM      9  N   UNL     1      -4.701   6.144   2.314  0.00  0.00    -0.336 N 
ATOM     10  C   UNL     1      -5.000   5.684   3.672  0.00  0.00    +0.129 C 
ATOM     11  C   UNL     1      -5.300   7.383   1.811  0.00  0.00    +0.129 C 
ENDBRANCH   6   9
ENDBRANCH   1   3
BRANCH   1  12
ATOM     12  N   UNL     1      -1.477   3.172  -2.790  0.00  0.00    -0.237 NA
ATOM     13  H   UNL     1      -1.393   4.139  -3.066  0.00  0.00    +0.132 HD
BRANCH  12  14
ATOM     14  C   UNL     1      -0.684   2.302  -3.669  0.00  0.00    +0.019 C 
ATOM     15  C   UNL     1      -1.180   0.861  -3.542  0.00  0.00    +0.027 C 
ATOM     16  C   UNL     1      -0.835   2.768  -5.119  0.00  0.00    +0.027 C 
ATOM     17  C   UNL     1       0.789   2.372  -3.261  0.00  0.00    +0.027 C 
ENDBRANCH  12  14
ENDBRANCH   1  12
BRANCH   1  18
ATOM     18  O   UNL     1       0.477   3.468  -0.967  0.00  0.00    -0.310 OA
BRANCH  18  24
ATOM     19  C   UNL     1       1.205   4.720   3.010  0.00  0.00    +0.007 C 
ATOM     20  C   UNL     1       2.216   5.111   1.930  0.00  0.00    -0.012 C 
ATOM     21  C   UNL     1       3.420   4.168   1.994  0.00  0.00    +0.004 C 
ATOM     22  C   UNL     1       2.954   2.729   1.760  0.00  0.00    +0.006 C 
ATOM     23  C   UNL     1       2.296   2.624   0.383  0.00  0.00    +0.021 C 
ATOM     24  C   UNL     1       1.092   3.567   0.319  0.00  0.00    +0.131 C 
ATOM     25  C   UNL     1       1.558   5.005   0.553  0.00  0.00    +0.035 C 
BRANCH  23  26
ATOM     26  C   UNL     1       1.830   1.185   0.149  0.00  0.00    -0.012 C 
ATOM     27  C   UNL     1       3.048   0.265   0.049  0.00  0.00    +0.007 C 
ATOM     28  C   UNL     1       0.948   0.739   1.317  0.00  0.00    +0.007 C 
ENDBRANCH  23  26
ENDBRANCH  18  24
ENDBRANCH   1  18
TORSDOF 7
