REMARK  Name = ZINC12553447
REMARK  7 active torsions:
REMARK  status: ('A' for Active; 'I' for Inactive)
REMARK    1  A    between atoms: C_1  and  C_2
REMARK    2  A    between atoms: C_2  and  C_4
REMARK    3  A    between atoms: C_2  and  O_19
REMARK    4  A    between atoms: N_6  and  C_7
REMARK    5  A    between atoms: C_10  and  N_13
REMARK    6  A    between atoms: O_19  and  C_20
REMARK    7  A    between atoms: C_20  and  C_22
REMARK                            x       y       z     vdW  Elec       q    Type
REMARK                         _______ _______ _______ _____ _____    ______ ____
ROOT
ATOM      1  C   UNL     1      -1.025  -2.606  -1.990  0.00  0.00    +0.062 C 
ATOM      2  C   UNL     1      -1.063  -2.208  -0.513  0.00  0.00    +0.259 C 
ENDROOT
BRANCH   2   3
ATOM      3  C   UNL     1      -2.239  -2.873   0.155  0.00  0.00    +0.258 C 
ATOM      4  O   UNL     1      -3.148  -2.199   0.594  0.00  0.00    -0.271 OA
ATOM      5  N   UNL     1      -2.280  -4.215   0.267  0.00  0.00    -0.282 N 
ATOM      6  H   UNL     1      -1.588  -4.758  -0.142  0.00  0.00    +0.155 HD
BRANCH   5   7
ATOM      7  C   UNL     1      -3.324  -4.828   0.974  0.00  0.00    +0.034 A 
ATOM      8  C   UNL     1      -3.082  -5.981   1.708  0.00  0.00    +0.025 A 
ATOM      9  C   UNL     1      -4.109  -6.581   2.409  0.00  0.00    +0.025 A 
ATOM     10  C   UNL     1      -5.387  -6.038   2.370  0.00  0.00    +0.030 A 
ATOM     11  C   UNL     1      -5.630  -4.887   1.631  0.00  0.00    +0.025 A 
ATOM     12  C   UNL     1      -4.601  -4.284   0.935  0.00  0.00    +0.025 A 
BRANCH  10  13
ATOM     13  N   UNL     1      -6.429  -6.649   3.076  0.00  0.00    -0.330 N 
ATOM     14  C   UNL     1      -7.065  -5.701   4.001  0.00  0.00    +0.105 C 
ATOM     15  C   UNL     1      -8.287  -6.358   4.646  0.00  0.00    +0.019 C 
ATOM     16  C   UNL     1      -7.845  -7.616   5.399  0.00  0.00    +0.003 C 
ATOM     17  C   UNL     1      -7.143  -8.565   4.424  0.00  0.00    +0.019 C 
ATOM     18  C   UNL     1      -5.954  -7.844   3.785  0.00  0.00    +0.105 C 
ENDBRANCH  10  13
ENDBRANCH   5   7
ENDBRANCH   2   3
BRANCH   2  19
ATOM     19  O   UNL     1      -1.196  -0.766  -0.404  0.00  0.00    -0.452 OA
BRANCH  19  20
ATOM     20  C   UNL     1      -0.060  -0.052  -0.356  0.00  0.00    +0.311 C 
ATOM     21  O   UNL     1       1.009  -0.613  -0.405  0.00  0.00    -0.251 OA
BRANCH  20  22
ATOM     22  C   UNL     1      -0.118   1.449  -0.243  0.00  0.00    +0.101 C 
ATOM     23  C   UNL     1      -0.868   2.023  -1.448  0.00  0.00    +0.034 C 
ATOM     24  C   UNL     1      -0.955   3.546  -1.311  0.00  0.00    +0.110 C 
ATOM     25  N   UNL     1       0.400   4.084  -1.132  0.00  0.00    -0.286 N 
ATOM     26  C   UNL     1       1.240   3.537  -0.058  0.00  0.00    +0.110 C 
ATOM     27  C   UNL     1       1.304   2.014  -0.208  0.00  0.00    +0.034 C 
ATOM     28  C   UNL     1       0.864   5.060  -1.938  0.00  0.00    +0.300 C 
ATOM     29  O   UNL     1       2.018   5.429  -1.842  0.00  0.00    -0.253 OA
ATOM     30  N   UNL     1       0.049   5.626  -2.849  0.00  0.00    -0.313 N 
ATOM     31  H   UNL     1      -0.850   5.283  -2.975  0.00  0.00    +0.146 HD
ATOM     32  H   UNL     1       0.360   6.376  -3.379  0.00  0.00    +0.146 HD
ENDBRANCH  20  22
ENDBRANCH  19  20
ENDBRANCH   2  19
TORSDOF 6
