REMARK  Name = ZINC04304358
REMARK  7 active torsions:
REMARK  status: ('A' for Active; 'I' for Inactive)
REMARK    1  A    between atoms: C_1  and  C_2
REMARK    2  A    between atoms: C_5  and  C_8
REMARK    3  A    between atoms: C_8  and  C_29
REMARK    4  A    between atoms: N_11  and  C_15
REMARK    5  A    between atoms: C_15  and  C_16
REMARK    6  A    between atoms: C_16  and  C_18
REMARK    7  A    between atoms: C_19  and  C_28
REMARK                            x       y       z     vdW  Elec       q    Type
REMARK                         _______ _______ _______ _____ _____    ______ ____
ROOT
ATOM      1  C   UNL     1      -2.795  10.148   0.965  0.00  0.00    +0.135 C 
ATOM      2  C   UNL     1      -1.629   9.233   1.283  0.00  0.00    +0.251 C 
ATOM      3  O   UNL     1      -1.155   9.003   2.375  0.00  0.00    -0.272 OA
ATOM      4  N   UNL     1      -1.230   8.727   0.099  0.00  0.00    -0.216 N 
ATOM      5  C   UNL     1      -1.971   9.194  -0.912  0.00  0.00    +0.310 C 
ATOM      6  O   UNL     1      -1.799   8.885  -2.075  0.00  0.00    -0.252 OA
ATOM      7  N   UNL     1      -2.930  10.041  -0.498  0.00  0.00    -0.281 N 
ATOM      8  C   UNL     1      -2.475  11.588   1.373  0.00  0.00    +0.047 C 
ATOM      9  H   UNL     1      -3.582  10.496  -1.054  0.00  0.00    +0.152 HD
ENDROOT
BRANCH   1  14
ATOM     10  C   UNL     1      -7.601   8.305   3.592  0.00  0.00    +0.044 C 
ATOM     11  C   UNL     1      -6.348   8.786   2.907  0.00  0.00    -0.050 A 
ATOM     12  C   UNL     1      -6.433   9.464   1.705  0.00  0.00    +0.004 A 
ATOM     13  C   UNL     1      -5.284   9.905   1.077  0.00  0.00    +0.006 A 
ATOM     14  C   UNL     1      -4.048   9.668   1.650  0.00  0.00    -0.015 A 
ATOM     15  C   UNL     1      -3.962   8.984   2.849  0.00  0.00    +0.006 A 
ATOM     16  C   UNL     1      -5.112   8.548   3.479  0.00  0.00    +0.004 A 
ENDBRANCH   1  14
BRANCH   4  17
ATOM     17  C   UNL     1      -0.119   7.786  -0.061  0.00  0.00    +0.197 C 
BRANCH  17  18
ATOM     18  C   UNL     1      -0.636   6.374   0.047  0.00  0.00    +0.183 C 
ATOM     19  O   UNL     1      -1.829   6.171   0.143  0.00  0.00    -0.290 OA
BRANCH  18  20
ATOM     20  C   UNL     1       0.270   5.285   0.036  0.00  0.00    +0.047 A 
ATOM     21  C   UNL     1       0.811   4.647   1.133  0.00  0.00    +0.024 A 
ATOM     22  N   UNL     1       1.629   3.659   0.723  0.00  0.00    -0.358 N 
ATOM     23  H   UNL     1       2.124   3.072   1.315  0.00  0.00    +0.166 HD
ATOM     24  C   UNL     1       1.668   3.597  -0.655  0.00  0.00    +0.047 A 
ATOM     25  C   UNL     1       0.825   4.605  -1.150  0.00  0.00    +0.010 A 
ATOM     26  C   UNL     1       0.670   4.775  -2.523  0.00  0.00    +0.011 A 
ATOM     27  C   UNL     1       1.352   3.953  -3.394  0.00  0.00    +0.001 A 
ATOM     28  C   UNL     1       2.181   2.953  -2.907  0.00  0.00    +0.002 A 
ATOM     29  C   UNL     1       2.344   2.774  -1.550  0.00  0.00    +0.026 A 
ATOM     30  C   UNL     1       0.529   5.002   2.570  0.00  0.00    +0.064 C 
ENDBRANCH  18  20
ENDBRANCH  17  18
ENDBRANCH   4  17
TORSDOF 4
