REMARK  Name = ZINC06078274
REMARK  17 active torsions:
REMARK  status: ('A' for Active; 'I' for Inactive)
REMARK    1  A    between atoms: C_1  and  C_2
REMARK    2  A    between atoms: C_2  and  N_69
REMARK    3  A    between atoms: C_3  and  C_4
REMARK    4  A    between atoms: C_3  and  N_69
REMARK    5  A    between atoms: C_5  and  C_6
REMARK    6  A    between atoms: C_5  and  N_69
REMARK    7  A    between atoms: C_6  and  N_7
REMARK    8  A    between atoms: N_7  and  C_8
REMARK    9  A    between atoms: N_7  and  C_23
REMARK   10  A    between atoms: C_8  and  C_9
REMARK   11  A    between atoms: C_12  and  C_22
REMARK   12  A    between atoms: C_14  and  C_21
REMARK   13  A    between atoms: C_23  and  N_25
REMARK   14  A    between atoms: N_25  and  C_26
REMARK   15  A    between atoms: C_31  and  C_32
REMARK   16  A    between atoms: C_32  and  O_34
REMARK   17  A    between atoms: O_34  and  C_35
REMARK                            x       y       z     vdW  Elec       q    Type
REMARK                         _______ _______ _______ _____ _____    ______ ____
ROOT
ATOM      1  N   UNL     1       6.004   4.759  -1.609  0.00  0.00    -0.310 N 
ENDROOT
BRANCH   1   2
ATOM      2  C   UNL     1       5.591   5.838  -2.303  0.00  0.00    +0.137 C 
ATOM      3  S   UNL     1       5.444   7.354  -1.521  0.00  0.00    -0.018 S 
BRANCH   2   4
ATOM      4  N   UNL     1       5.295   5.725  -3.613  0.00  0.00    -0.296 N 
ATOM      5  H   UNL     1       5.303   4.853  -4.038  0.00  0.00    +0.154 HD
BRANCH   4   6
ATOM      6  C   UNL     1       4.976   6.858  -4.355  0.00  0.00    +0.047 A 
ATOM      7  C   UNL     1       4.105   7.808  -3.840  0.00  0.00    +0.024 A 
ATOM      8  C   UNL     1       3.794   8.933  -4.575  0.00  0.00    +0.002 A 
ATOM      9  C   UNL     1       4.339   9.120  -5.836  0.00  0.00    +0.001 A 
ATOM     10  C   UNL     1       5.201   8.185  -6.367  0.00  0.00    +0.017 A 
ATOM     11  C   UNL     1       5.529   7.043  -5.632  0.00  0.00    +0.080 A 
BRANCH  11  12
ATOM     12  C   UNL     1       6.450   6.039  -6.194  0.00  0.00    +0.341 C 
ATOM     13  O   UNL     1       6.665   5.006  -5.591  0.00  0.00    -0.245 OA
BRANCH  12  14
ATOM     14  O   UNL     1       7.056   6.267  -7.376  0.00  0.00    -0.464 OA
ATOM     15  C   UNL     1       7.950   5.235  -7.869  0.00  0.00    +0.280 C 
ENDBRANCH  12  14
ENDBRANCH  11  12
ENDBRANCH   4   6
ENDBRANCH   2   4
ENDBRANCH   1   2
BRANCH   1  16
ATOM     16  C   UNL     1       6.237   3.489  -2.301  0.00  0.00    +0.088 C 
BRANCH  16  17
ATOM     17  C   UNL     1       4.907   2.753  -2.478  0.00  0.00    -0.060 C 
BRANCH  17  18
ATOM     18  N   UNL     1       5.131   1.571  -3.336  0.00  0.00    +0.380 N 
ATOM     19  H   UNL     1       5.784   1.824  -4.088  0.00  0.00    -0.082 HD
BRANCH  18  21
ATOM     20  C   UNL     1       4.712  -0.040  -1.509  0.00  0.00    -0.017 C 
ATOM     21  C   UNL     1       5.719   0.473  -2.540  0.00  0.00    -0.082 C 
ENDBRANCH  18  21
BRANCH  18  22
ATOM     22  C   UNL     1       3.854   1.133  -3.936  0.00  0.00    -0.082 C 
ATOM     23  C   UNL     1       4.130  -0.021  -4.902  0.00  0.00    -0.017 C 
ENDBRANCH  18  22
ENDBRANCH  17  18
ENDBRANCH  16  17
ENDBRANCH   1  16
BRANCH   1  24
ATOM     24  C   UNL     1       6.220   4.857  -0.164  0.00  0.00    +0.147 C 
BRANCH  24  25
ATOM     25  C   UNL     1       4.965   4.442   0.561  0.00  0.00    +0.035 A 
ATOM     26  C   UNL     1       4.061   5.380   0.937  0.00  0.00    +0.020 A 
ATOM     27  C   UNL     1       2.853   4.944   1.640  0.00  0.00    +0.002 A 
ATOM     28  C   UNL     1       1.885   5.865   2.053  0.00  0.00    -0.041 A 
ATOM     29  C   UNL     1       0.768   5.427   2.707  0.00  0.00    +0.007 A 
ATOM     30  C   UNL     1       0.586   4.075   2.964  0.00  0.00    -0.048 A 
ATOM     31  C   UNL     1       1.526   3.150   2.566  0.00  0.00    +0.029 A 
ATOM     32  C   UNL     1       2.671   3.573   1.898  0.00  0.00    +0.050 A 
ATOM     33  N   UNL     1       3.628   2.669   1.488  0.00  0.00    -0.322 N 
ATOM     34  H   UNL     1       3.497   1.695   1.673  0.00  0.00    +0.169 HD
ATOM     35  C   UNL     1       4.735   3.079   0.845  0.00  0.00    +0.254 A 
ATOM     36  O   UNL     1       5.560   2.252   0.497  0.00  0.00    -0.268 OA
ATOM     37  C   UNL     1      -0.654   3.614   3.687  0.00  0.00    +0.044 C 
ATOM     38  C   UNL     1       2.072   7.335   1.779  0.00  0.00    +0.044 C 
ENDBRANCH  24  25
ENDBRANCH   1  24
TORSDOF 12
