REMARK  Name = ZINC08846351
REMARK  11 active torsions:
REMARK  status: ('A' for Active; 'I' for Inactive)
REMARK    1  A    between atoms: C_1  and  C_2
REMARK    2  A    between atoms: C_2  and  C_3
REMARK    3  A    between atoms: C_3  and  C_4
REMARK    4  A    between atoms: C_4  and  C_5
REMARK    5  A    between atoms: C_5  and  C_6
REMARK    6  A    between atoms: C_18  and  C_20
REMARK    7  A    between atoms: C_29  and  C_32
REMARK    8  A    between atoms: C_35  and  C_38
REMARK    9  A    between atoms: C_38  and  C_39
REMARK   10  A    between atoms: C_38  and  C_40
REMARK   11  A    between atoms: C_38  and  C_41
REMARK                            x       y       z     vdW  Elec       q    Type
REMARK                         _______ _______ _______ _____ _____    ______ ____
ROOT
ATOM      1  C   UNL     1      -2.643   0.535   0.984  0.00  0.00    +0.221 C 
ATOM      2  O   UNL     1      -3.619  -0.184   1.007  0.00  0.00    -0.275 OA
ATOM      3  N   UNL     1      -2.387   1.290  -0.102  0.00  0.00    -0.258 N 
ATOM      4  C   UNL     1      -1.260   2.114  -0.121  0.00  0.00    +0.058 A 
ATOM      5  C   UNL     1       0.022   1.588  -0.131  0.00  0.00    +0.025 A 
ATOM      6  C   UNL     1       1.106   2.440  -0.247  0.00  0.00    +0.002 A 
ATOM      7  C   UNL     1       0.914   3.807  -0.343  0.00  0.00    +0.002 A 
ATOM      8  C   UNL     1      -0.364   4.337  -0.303  0.00  0.00    +0.025 A 
ATOM      9  C   UNL     1      -1.449   3.487  -0.177  0.00  0.00    +0.053 A 
ATOM     10  N   UNL     1      -2.752   3.956  -0.073  0.00  0.00    -0.316 N 
ATOM     11  C   UNL     1      -3.733   3.725  -0.983  0.00  0.00    +0.017 C 
ATOM     12  C   UNL     1      -4.012   2.527  -1.523  0.00  0.00    +0.037 C 
ATOM     13  C   UNL     1      -3.287   1.234  -1.235  0.00  0.00    +0.148 C 
ATOM     14  C   UNL     1      -5.079   2.392  -2.443  0.00  0.00    +0.163 C 
ATOM     15  O   UNL     1      -5.297   1.300  -2.930  0.00  0.00    -0.292 OA
ATOM     16  C   UNL     1      -5.950   3.546  -2.839  0.00  0.00    +0.088 C 
ATOM     17  C   UNL     1      -5.973   4.561  -1.690  0.00  0.00    +0.032 C 
ATOM     18  C   UNL     1      -4.528   4.955  -1.389  0.00  0.00    +0.059 C 
ATOM     19  H   UNL     1      -2.978   4.487   0.706  0.00  0.00    +0.152 HD
ENDROOT
BRANCH  13  20
ATOM     20  C   UNL     1      -2.493   0.850  -2.457  0.00  0.00    -0.004 A 
ATOM     21  C   UNL     1      -1.456   1.656  -2.903  0.00  0.00    +0.009 A 
ATOM     22  C   UNL     1      -0.753   1.263  -4.031  0.00  0.00    +0.020 A 
ATOM     23  C   UNL     1      -1.106   0.089  -4.670  0.00  0.00    +0.111 A 
ATOM     24  N   UNL     1      -2.099  -0.652  -4.218  0.00  0.00    -0.263 NA
ATOM     25  C   UNL     1      -2.785  -0.312  -3.145  0.00  0.00    +0.116 A 
ENDBRANCH  13  20
BRANCH  17  26
ATOM     26  C   UNL     1      -6.760   5.779  -2.101  0.00  0.00    -0.043 A 
ATOM     27  C   UNL     1      -6.354   6.529  -3.188  0.00  0.00    +0.004 A 
ATOM     28  C   UNL     1      -7.078   7.644  -3.567  0.00  0.00    +0.004 A 
ATOM     29  C   UNL     1      -8.203   8.014  -2.853  0.00  0.00    -0.042 A 
ATOM     30  C   UNL     1      -8.605   7.266  -1.763  0.00  0.00    +0.004 A 
ATOM     31  C   UNL     1      -7.884   6.148  -1.386  0.00  0.00    +0.004 A 
BRANCH  29  32
ATOM     32  C   UNL     1      -8.990   9.231  -3.264  0.00  0.00    -0.013 C 
ATOM     33  C   UNL     1      -9.010  10.238  -2.113  0.00  0.00    +0.015 C 
ATOM     34  C   UNL     1      -8.336   9.871  -4.490  0.00  0.00    +0.015 C 
ATOM     35  C   UNL     1     -10.423   8.820  -3.607  0.00  0.00    +0.015 C 
ENDBRANCH  29  32
ENDBRANCH  17  26
BRANCH   1  36
ATOM     36  C   UNL     1      -1.715   0.583   2.171  0.00  0.00    +0.096 C 
BRANCH  36  37
ATOM     37  C   UNL     1      -2.229  -0.360   3.259  0.00  0.00    +0.009 C 
BRANCH  37  38
ATOM     38  C   UNL     1      -1.287  -0.311   4.464  0.00  0.00    +0.000 C 
BRANCH  38  40
ATOM     39  C   UNL     1      -0.859  -1.206   6.757  0.00  0.00    +0.004 C 
ATOM     40  C   UNL     1      -1.801  -1.255   5.553  0.00  0.00    -0.003 C 
ENDBRANCH  38  40
ENDBRANCH  37  38
ENDBRANCH  36  37
ENDBRANCH   1  36
TORSDOF 7
