REMARK  Name = ZINC27991508
REMARK  8 active torsions:
REMARK  status: ('A' for Active; 'I' for Inactive)
REMARK    1  A    between atoms: C_1  and  C_2
REMARK    2  A    between atoms: C_5  and  C_8
REMARK    3  A    between atoms: C_8  and  C_10
REMARK    4  A    between atoms: C_8  and  N_26
REMARK    5  A    between atoms: C_10  and  N_11
REMARK    6  A    between atoms: C_12  and  C_14
REMARK    7  A    between atoms: C_15  and  C_25
REMARK    8  A    between atoms: C_19  and  C_23
REMARK                            x       y       z     vdW  Elec       q    Type
REMARK                         _______ _______ _______ _____ _____    ______ ____
ROOT
ATOM      1  C   UNL     1      -1.166   1.701   3.222  0.00  0.00    +0.094 C 
ENDROOT
BRANCH   1   2
ATOM      2  N   UNL     1      -1.049   3.145   3.004  0.00  0.00    -0.310 N 
ATOM      3  C   UNL     1      -1.955   3.984   3.544  0.00  0.00    +0.280 C 
ATOM      4  O   UNL     1      -2.870   3.542   4.213  0.00  0.00    -0.267 OA
ATOM      5  H   UNL     1      -0.221   3.545   2.400  0.00  0.00    +0.149 HD
BRANCH   3   6
ATOM      6  C   UNL     1      -1.837   5.433   3.326  0.00  0.00    +0.193 A 
ATOM      7  C   UNL     1      -2.688   6.369   3.819  0.00  0.00    +0.008 A 
ATOM      8  C   UNL     1      -2.184   7.660   3.353  0.00  0.00    +0.025 A 
ATOM      9  C   UNL     1      -2.602   8.984   3.513  0.00  0.00    +0.032 A 
ATOM     10  C   UNL     1      -1.889   9.995   2.930  0.00  0.00    +0.045 A 
ATOM     11  C   UNL     1      -0.754   9.713   2.180  0.00  0.00    -0.029 A 
ATOM     12  C   UNL     1      -0.327   8.414   2.010  0.00  0.00    +0.051 A 
ATOM     13  C   UNL     1      -1.035   7.370   2.594  0.00  0.00    +0.136 A 
ATOM     14  O   UNL     1      -0.864   6.034   2.610  0.00  0.00    -0.450 OA
ATOM     15  C   UNL     1       0.018  10.840   1.545  0.00  0.00    +0.045 C 
ATOM     16 CL   UNL     1      -2.405  11.640   3.128  0.00  0.00    -0.083 Cl
ATOM     17  C   UNL     1      -3.905   6.127   4.675  0.00  0.00    +0.048 C 
ENDBRANCH   3   6
ENDBRANCH   1   2
BRANCH   1  18
ATOM     18  C   UNL     1      -0.084   0.975   2.420  0.00  0.00    -0.020 C 
BRANCH  18  23
ATOM     19  C   UNL     1      -0.859  -4.734   2.870  0.00  0.00    +0.044 C 
ATOM     20  C   UNL     1      -0.657  -3.245   2.753  0.00  0.00    -0.050 A 
ATOM     21  C   UNL     1       0.527  -2.672   3.178  0.00  0.00    +0.003 A 
ATOM     22  C   UNL     1       0.713  -1.307   3.070  0.00  0.00    +0.002 A 
ATOM     23  C   UNL     1      -0.286  -0.514   2.537  0.00  0.00    -0.059 A 
ATOM     24  C   UNL     1      -1.472  -1.085   2.117  0.00  0.00    +0.002 A 
ATOM     25  C   UNL     1      -1.656  -2.451   2.220  0.00  0.00    +0.003 A 
ENDBRANCH  18  23
BRANCH  18  26
ATOM     26  N   UNL     1      -0.171   1.372   1.008  0.00  0.00    +0.385 N 
ATOM     27  C   UNL     1      -1.553   1.706   0.640  0.00  0.00    -0.078 C 
ATOM     28  C   UNL     1      -1.583   2.252  -0.789  0.00  0.00    -0.019 C 
ATOM     29  C   UNL     1      -1.022   1.196  -1.746  0.00  0.00    -0.004 C 
ATOM     30  C   UNL     1       0.400   0.830  -1.311  0.00  0.00    -0.019 C 
ATOM     31  C   UNL     1       0.372   0.325   0.133  0.00  0.00    -0.078 C 
ATOM     32  H   UNL     1       0.441   2.275   0.871  0.00  0.00    -0.081 HD
ENDBRANCH  18  26
ENDBRANCH   1  18
TORSDOF 5
