REMARK  Name = ZINC39668751
REMARK  8 active torsions:
REMARK  status: ('A' for Active; 'I' for Inactive)
REMARK    1  A    between atoms: C_1  and  C_2
REMARK    2  A    between atoms: C_2  and  C_4
REMARK    3  A    between atoms: C_2  and  O_33
REMARK    4  A    between atoms: C_4  and  N_5
REMARK    5  A    between atoms: C_6  and  C_8
REMARK    6  A    between atoms: C_19  and  C_21
REMARK    7  A    between atoms: C_24  and  C_26
REMARK    8  A    between atoms: O_33  and  C_34
REMARK                            x       y       z     vdW  Elec       q    Type
REMARK                         _______ _______ _______ _____ _____    ______ ____
ROOT
ATOM      1  C   UNL     1      -3.300  -2.583  -0.034  0.00  0.00    +0.100 C 
ATOM      2  C   UNL     1      -2.684  -3.527   1.022  0.00  0.00    +0.121 C 
ATOM      3  N   UNL     1      -3.789  -3.796   1.973  0.00  0.00    -0.294 N 
ATOM      4  C   UNL     1      -4.989  -3.933   1.113  0.00  0.00    +0.115 C 
ATOM      5  C   UNL     1      -4.812  -2.855   0.026  0.00  0.00    -0.004 C 
ATOM      6  C   UNL     1      -5.309  -3.375  -1.320  0.00  0.00    -0.010 C 
ATOM      7  C   UNL     1      -6.825  -3.583  -1.253  0.00  0.00    -0.082 C 
ATOM      8  N   UNL     1      -7.481  -2.312  -0.925  0.00  0.00    +0.379 N 
ATOM      9  C   UNL     1      -7.068  -1.866   0.411  0.00  0.00    -0.082 C 
ATOM     10  C   UNL     1      -5.562  -1.585   0.415  0.00  0.00    -0.010 C 
ATOM     11  C   UNL     1      -3.719  -3.895   3.315  0.00  0.00    +0.282 C 
ATOM     12  O   UNL     1      -4.705  -4.211   3.954  0.00  0.00    -0.267 OA
ATOM     13  H   UNL     1      -7.221  -1.614  -1.606  0.00  0.00    -0.086 HD
ATOM     14  H   UNL     1      -8.482  -2.437  -0.941  0.00  0.00    -0.086 HD
ENDROOT
BRANCH  11  15
ATOM     15  C   UNL     1      -2.455  -3.622   4.004  0.00  0.00    +0.190 A 
ATOM     16  C   UNL     1      -2.218  -3.783   5.352  0.00  0.00    +0.055 A 
ATOM     17  C   UNL     1      -0.889  -3.409   5.575  0.00  0.00    +0.051 A 
ATOM     18  C   UNL     1      -0.368  -3.037   4.368  0.00  0.00    +0.139 A 
ATOM     19  O   UNL     1      -1.319  -3.174   3.429  0.00  0.00    -0.450 OA
BRANCH  18  20
ATOM     20  C   UNL     1       1.011  -2.567   4.134  0.00  0.00    +0.052 A 
ATOM     21  C   UNL     1       1.514  -1.480   4.852  0.00  0.00    +0.014 A 
ATOM     22  C   UNL     1       2.804  -1.046   4.629  0.00  0.00    +0.001 A 
ATOM     23  C   UNL     1       3.601  -1.685   3.694  0.00  0.00    +0.003 A 
ATOM     24  C   UNL     1       3.112  -2.761   2.978  0.00  0.00    +0.039 A 
ATOM     25  C   UNL     1       1.823  -3.212   3.195  0.00  0.00    +0.134 A 
ATOM     26  F   UNL     1       1.348  -4.268   2.499  0.00  0.00    -0.205 F 
ENDBRANCH  18  20
ENDBRANCH  11  15
BRANCH   1  28
ATOM     27  N   UNL     1      -3.059  -0.197  -0.642  0.00  0.00    -0.312 N 
ATOM     28  C   UNL     1      -3.011  -1.146   0.315  0.00  0.00    +0.218 C 
ATOM     29  O   UNL     1      -2.736  -0.842   1.456  0.00  0.00    -0.275 OA
ATOM     30  H   UNL     1      -3.207  -0.448  -1.567  0.00  0.00    +0.149 HD
BRANCH  27  31
ATOM     31  C   UNL     1      -2.887   1.213  -0.284  0.00  0.00    +0.148 C 
BRANCH  31  33
ATOM     32  C   UNL     1      -3.054   3.560  -1.124  0.00  0.00    +0.053 C 
ATOM     33  C   UNL     1      -3.106   2.084  -1.523  0.00  0.00    +0.187 C 
BRANCH  33  34
ATOM     34  O   UNL     1      -2.083   1.813  -2.483  0.00  0.00    -0.486 OA
BRANCH  34  35
ATOM     35  C   UNL     1      -2.377   2.066  -3.785  0.00  0.00    +0.139 A 
ATOM     36  C   UNL     1      -1.480   1.721  -4.791  0.00  0.00    +0.049 A 
ATOM     37  C   UNL     1      -1.824   1.999  -6.104  0.00  0.00    +0.023 A 
ATOM     38  C   UNL     1      -3.038   2.604  -6.370  0.00  0.00    +0.111 A 
ATOM     39  N   UNL     1      -3.866   2.918  -5.394  0.00  0.00    -0.260 NA
ATOM     40  C   UNL     1      -3.579   2.666  -4.132  0.00  0.00    +0.156 A 
ENDBRANCH  34  35
ENDBRANCH  33  34
ENDBRANCH  31  33
ENDBRANCH  27  31
ENDBRANCH   1  28
TORSDOF 7
