REMARK  Name = ZINC05175742
REMARK  2 active torsions:
REMARK  status: ('A' for Active; 'I' for Inactive)
REMARK    1  A    between atoms: C_10  and  C_11
REMARK    2  A    between atoms: C_14  and  C_15
REMARK                            x       y       z     vdW  Elec       q    Type
REMARK                         _______ _______ _______ _____ _____    ______ ____
ROOT
ATOM      1  C   UNL     1      -5.814   2.717  -0.219  0.00  0.00    +0.233 C 
ATOM      2  N   UNL     1      -4.952   3.695  -0.141  0.00  0.00    -0.205 NA
ATOM      3  C   UNL     1      -3.695   3.174  -0.052  0.00  0.00    +0.152 C 
ATOM      4  C   UNL     1      -2.508   3.869   0.045  0.00  0.00    +0.043 C 
ATOM      5  C   UNL     1      -3.873   1.710  -0.074  0.00  0.00    +0.364 C 
ATOM      6  O   UNL     1      -3.006   0.859  -0.012  0.00  0.00    -0.243 OA
ATOM      7  O   UNL     1      -5.205   1.516  -0.179  0.00  0.00    -0.402 OA
ENDROOT
BRANCH   1  17
ATOM      8  C   UNL     1      -9.012   6.760  -0.444  0.00  0.00    +0.001 A 
ATOM      9  C   UNL     1      -7.630   6.623  -0.337  0.00  0.00    +0.001 A 
ATOM     10  C   UNL     1      -7.048   5.391  -0.298  0.00  0.00    +0.009 A 
ATOM     11  C   UNL     1      -7.850   4.245  -0.362  0.00  0.00    -0.006 A 
ATOM     12  C   UNL     1      -9.256   4.380  -0.477  0.00  0.00    -0.017 A 
ATOM     13  C   UNL     1      -9.821   5.667  -0.514  0.00  0.00    +0.008 A 
ATOM     14  C   UNL     1     -10.057   3.228  -0.547  0.00  0.00    +0.008 A 
ATOM     15  C   UNL     1      -9.495   1.989  -0.510  0.00  0.00    +0.001 A 
ATOM     16  C   UNL     1      -8.123   1.809  -0.405  0.00  0.00    +0.014 A 
ATOM     17  C   UNL     1      -7.271   2.904  -0.332  0.00  0.00    +0.045 A 
ENDBRANCH   1  17
BRANCH   4  18
ATOM     18  C   UNL     1      -1.231   3.155  -0.043  0.00  0.00    -0.023 A 
ATOM     19  C   UNL     1      -1.086   2.077  -0.926  0.00  0.00    +0.009 A 
ATOM     20  C   UNL     1       0.116   1.409  -0.999  0.00  0.00    +0.020 A 
ATOM     21  C   UNL     1       1.184   1.806  -0.209  0.00  0.00    +0.041 A 
ATOM     22  C   UNL     1       1.050   2.874   0.663  0.00  0.00    +0.020 A 
ATOM     23  C   UNL     1      -0.147   3.550   0.752  0.00  0.00    +0.009 A 
ATOM     24 CL   UNL     1       2.696   0.961  -0.314  0.00  0.00    -0.084 Cl
ENDBRANCH   4  18
TORSDOF 2
