REMARK  Name = ZINC02424505
REMARK  6 active torsions:
REMARK  status: ('A' for Active; 'I' for Inactive)
REMARK    1  A    between atoms: C_1  and  C_2
REMARK    2  A    between atoms: C_2  and  C_3
REMARK    3  A    between atoms: C_2  and  C_4
REMARK    4  A    between atoms: C_7  and  C_10
REMARK    5  A    between atoms: C_20  and  C_22
REMARK    6  A    between atoms: C_22  and  C_23
REMARK                            x       y       z     vdW  Elec       q    Type
REMARK                         _______ _______ _______ _____ _____    ______ ____
ROOT
ATOM      1  C   UNL     1       4.728   1.520   0.499  0.00  0.00    +0.032 C 
ATOM      2  C   UNL     1       3.527   2.305  -0.026  0.00  0.00    +0.065 C 
ATOM      3  C   UNL     1       2.282   1.464  -0.013  0.00  0.00    +0.057 A 
ATOM      4  C   UNL     1       2.341   0.066  -0.018  0.00  0.00    +0.057 A 
ATOM      5  C   UNL     1       1.147  -0.664  -0.011  0.00  0.00    +0.127 A 
ATOM      6  N   UNL     1       0.002  -0.004   0.002  0.00  0.00    -0.222 NA
ATOM      7  C   UNL     1      -0.016   1.322   0.009  0.00  0.00    +0.222 A 
ATOM      8  N   UNL     1       1.095   2.046   0.003  0.00  0.00    -0.218 NA
ATOM      9  N   UNL     1      -1.238   1.973   0.018  0.00  0.00    -0.254 N 
ATOM     10  C   UNL     1      -2.381   1.260   0.020  0.00  0.00    +0.224 C 
ATOM     11  O   UNL     1      -2.341   0.048   0.013  0.00  0.00    -0.275 OA
ATOM     12  C   UNL     1       3.641  -0.621  -0.027  0.00  0.00    +0.167 C 
ATOM     13  O   UNL     1       3.722  -1.815   0.172  0.00  0.00    -0.292 OA
ATOM     14  C   UNL     1       4.874   0.217  -0.297  0.00  0.00    +0.088 C 
ATOM     15  H   UNL     1      -1.270   2.942   0.024  0.00  0.00    +0.158 HD
ENDROOT
BRANCH   1  19
ATOM     16  C   UNL     1       8.269   3.867   0.051  0.00  0.00    -0.045 A 
ATOM     17  C   UNL     1       7.871   3.449   1.307  0.00  0.00    +0.004 A 
ATOM     18  C   UNL     1       6.725   2.690   1.452  0.00  0.00    +0.004 A 
ATOM     19  C   UNL     1       5.977   2.349   0.341  0.00  0.00    -0.043 A 
ATOM     20  C   UNL     1       6.378   2.762  -0.916  0.00  0.00    +0.004 A 
ATOM     21  C   UNL     1       7.521   3.525  -1.060  0.00  0.00    +0.004 A 
BRANCH  16  23
ATOM     22  C   UNL     1      10.510   3.953  -1.007  0.00  0.00    +0.012 C 
ATOM     23  C   UNL     1       9.519   4.694  -0.107  0.00  0.00    +0.013 C 
ATOM     24  C   UNL     1       9.162   6.040  -0.741  0.00  0.00    +0.012 C 
ENDBRANCH  16  23
ENDBRANCH   1  19
BRANCH  10  25
ATOM     25  C   UNL     1      -3.711   1.969   0.030  0.00  0.00    +0.131 C 
BRANCH  25  26
ATOM     26  C   UNL     1      -4.823   0.952   0.030  0.00  0.00    -0.039 A 
ATOM     27  C   UNL     1      -5.342   0.496  -1.167  0.00  0.00    +0.004 A 
ATOM     28  C   UNL     1      -6.359  -0.441  -1.168  0.00  0.00    +0.000 A 
ATOM     29  C   UNL     1      -6.863  -0.914   0.029  0.00  0.00    +0.000 A 
ATOM     30  C   UNL     1      -6.347  -0.455   1.226  0.00  0.00    +0.000 A 
ATOM     31  C   UNL     1      -5.327   0.479   1.227  0.00  0.00    +0.004 A 
ENDBRANCH  25  26
ENDBRANCH  10  25
TORSDOF 4
