REMARK  Name = ZINC12747405
REMARK  8 active torsions:
REMARK  status: ('A' for Active; 'I' for Inactive)
REMARK    1  A    between atoms: C_1  and  C_2
REMARK    2  A    between atoms: C_2  and  C_3
REMARK    3  A    between atoms: C_2  and  C_4
REMARK    4  A    between atoms: N_6  and  C_7
REMARK    5  A    between atoms: C_10  and  N_13
REMARK    6  A    between atoms: C_14  and  C_16
REMARK    7  A    between atoms: C_16  and  C_17
REMARK    8  A    between atoms: C_17  and  C_18
REMARK                            x       y       z     vdW  Elec       q    Type
REMARK                         _______ _______ _______ _____ _____    ______ ____
ROOT
ATOM      1  N   UNL     1      -4.435   3.758   0.719  0.00  0.00    -0.285 N 
ATOM      2  C   UNL     1      -4.481   5.104   0.762  0.00  0.00    +0.218 C 
ATOM      3  O   UNL     1      -3.453   5.747   0.723  0.00  0.00    -0.275 OA
ATOM      4  H   UNL     1      -5.250   3.242   0.817  0.00  0.00    +0.155 HD
ENDROOT
BRANCH   1   8
ATOM      5  C   UNL     1      -0.789   1.812   0.164  0.00  0.00    +0.034 A 
ATOM      6  C   UNL     1      -0.844   2.985   0.906  0.00  0.00    +0.025 A 
ATOM      7  C   UNL     1      -2.051   3.632   1.085  0.00  0.00    +0.025 A 
ATOM      8  C   UNL     1      -3.210   3.104   0.533  0.00  0.00    +0.033 A 
ATOM      9  C   UNL     1      -3.156   1.929  -0.205  0.00  0.00    +0.025 A 
ATOM     10  C   UNL     1      -1.949   1.285  -0.389  0.00  0.00    +0.025 A 
BRANCH   5  13
ATOM     11  C   UNL     1       0.691   0.524  -1.184  0.00  0.00    +0.220 C 
ATOM     12  O   UNL     1      -0.168   0.451  -2.037  0.00  0.00    -0.275 OA
ATOM     13  N   UNL     1       0.436   1.159  -0.023  0.00  0.00    -0.285 N 
ATOM     14  H   UNL     1       1.099   1.160   0.685  0.00  0.00    +0.155 HD
BRANCH  11  16
ATOM     15  C   UNL     1       2.315  -1.156  -0.354  0.00  0.00    +0.017 C 
ATOM     16  C   UNL     1       2.044  -0.096  -1.422  0.00  0.00    +0.069 C 
ATOM     17  C   UNL     1       2.069  -0.748  -2.806  0.00  0.00    +0.017 C 
ENDBRANCH  11  16
ENDBRANCH   5  13
ENDBRANCH   1   8
BRANCH   2  18
ATOM     18  C   UNL     1      -5.809   5.810   0.858  0.00  0.00    +0.104 C 
BRANCH  18  19
ATOM     19  C   UNL     1      -5.581   7.323   0.890  0.00  0.00    +0.083 C 
BRANCH  19  20
ATOM     20  C   UNL     1      -6.909   8.029   0.986  0.00  0.00    +0.111 A 
ATOM     21  N   UNL     1      -6.940   9.386   1.028  0.00  0.00    -0.310 N 
ATOM     22  H   UNL     1      -6.107   9.882   0.996  0.00  0.00    +0.170 HD
ATOM     23  C   UNL     1      -8.104  10.057   1.113  0.00  0.00    +0.260 A 
ATOM     24  O   UNL     1      -8.118  11.275   1.151  0.00  0.00    -0.267 OA
ATOM     25  C   UNL     1      -9.327   9.312   1.159  0.00  0.00    +0.075 A 
ATOM     26  C   UNL     1     -10.701   9.829   1.253  0.00  0.00    -0.023 A 
ATOM     27  C   UNL     1     -11.691   8.921   1.279  0.00  0.00    -0.004 A 
ATOM     28  S   UNL     1     -10.872   7.345   1.187  0.00  0.00    -0.073 S 
ATOM     29  C   UNL     1      -9.196   7.918   1.110  0.00  0.00    +0.116 A 
ATOM     30  N   UNL     1      -8.008   7.324   1.021  0.00  0.00    -0.227 NA
ATOM     31  C   UNL     1     -13.049   9.564   1.371  0.00  0.00    +0.043 C 
ATOM     32  C   UNL     1     -12.809  11.035   0.966  0.00  0.00    +0.010 C 
ATOM     33  C   UNL     1     -11.325  11.225   1.336  0.00  0.00    +0.037 C 
ENDBRANCH  19  20
ENDBRANCH  18  19
ENDBRANCH   2  18
TORSDOF 6
