REMARK  Name = ZINC06083406
REMARK  9 active torsions:
REMARK  status: ('A' for Active; 'I' for Inactive)
REMARK    1  A    between atoms: C_1  and  C_2
REMARK    2  A    between atoms: N_4  and  C_5
REMARK    3  A    between atoms: C_14  and  C_17
REMARK    4  A    between atoms: N_19  and  C_20
REMARK    5  A    between atoms: C_20  and  C_21
REMARK    6  A    between atoms: C_21  and  C_23
REMARK    7  A    between atoms: C_21  and  N_58
REMARK    8  A    between atoms: C_28  and  N_58
REMARK    9  A    between atoms: C_29  and  N_58
REMARK                            x       y       z     vdW  Elec       q    Type
REMARK                         _______ _______ _______ _____ _____    ______ ____
ROOT
ATOM      1  C   UNL     1      -1.441   2.607   1.961  0.00  0.00    +0.036 C 
ATOM      2  C   UNL     1      -1.224   3.263   0.595  0.00  0.00    +0.029 C 
ATOM      3  C   UNL     1      -2.550   3.829   0.085  0.00  0.00    -0.008 C 
ATOM      4  C   UNL     1      -3.073   4.873   1.074  0.00  0.00    +0.007 C 
ATOM      5  C   UNL     1      -3.291   4.218   2.439  0.00  0.00    -0.008 C 
ATOM      6  C   UNL     1      -1.964   3.651   2.950  0.00  0.00    +0.029 C 
ATOM      7  C   UNL     1      -4.311   3.086   2.305  0.00  0.00    +0.020 C 
ATOM      8  C   UNL     1      -3.788   2.042   1.316  0.00  0.00    +0.049 C 
ATOM      9  C   UNL     1      -3.571   2.697  -0.049  0.00  0.00    +0.020 C 
ATOM     10  C   UNL     1      -2.462   1.475   1.827  0.00  0.00    +0.042 C 
ENDROOT
BRANCH   1  14
ATOM     11  C   UNL     1       2.191   2.324   3.137  0.00  0.00    +0.109 C 
ATOM     12  C   UNL     1       0.883   2.883   2.640  0.00  0.00    +0.210 C 
ATOM     13  O   UNL     1       0.778   4.069   2.411  0.00  0.00    -0.276 OA
ATOM     14  N   UNL     1      -0.171   2.064   2.450  0.00  0.00    -0.310 N 
ATOM     15  H   UNL     1      -0.087   1.116   2.632  0.00  0.00    +0.149 HD
ENDBRANCH   1  14
BRANCH   8  16
ATOM     16  C   UNL     1      -4.793   0.927   1.184  0.00  0.00    +0.219 C 
ATOM     17  O   UNL     1      -4.479  -0.209   1.470  0.00  0.00    -0.275 OA
ATOM     18  N   UNL     1      -6.040   1.192   0.748  0.00  0.00    -0.316 N 
ATOM     19  H   UNL     1      -6.291   2.101   0.519  0.00  0.00    +0.149 HD
BRANCH  18  20
ATOM     20  C   UNL     1      -7.018   0.108   0.620  0.00  0.00    +0.096 C 
BRANCH  20  21
ATOM     21  C   UNL     1      -8.344   0.675   0.109  0.00  0.00    +0.016 C 
BRANCH  21  22
ATOM     22  C   UNL     1      -9.383  -0.416   0.093  0.00  0.00    +0.093 A 
ATOM     23  C   UNL     1      -9.882  -1.012  -1.005  0.00  0.00    +0.043 A 
ATOM     24  C   UNL     1     -10.821  -1.970  -0.560  0.00  0.00    +0.041 A 
ATOM     25  C   UNL     1     -10.847  -1.897   0.783  0.00  0.00    +0.195 A 
ATOM     26  O   UNL     1      -9.974  -0.954   1.173  0.00  0.00    -0.469 OA
ENDBRANCH  21  22
BRANCH  21  29
ATOM     27  C   UNL     1     -10.037   2.358   0.510  0.00  0.00    -0.096 C 
ATOM     28  C   UNL     1      -8.930   1.285   2.377  0.00  0.00    -0.096 C 
ATOM     29  N   UNL     1      -8.766   1.781   0.995  0.00  0.00    +0.384 N 
ATOM     30  H   UNL     1      -8.043   2.510   0.985  0.00  0.00    -0.082 HD
ENDBRANCH  21  29
ENDBRANCH  20  21
ENDBRANCH  18  20
ENDBRANCH   8  16
TORSDOF 6
