REMARK  Name = ZINC40011306
REMARK  5 active torsions:
REMARK  status: ('A' for Active; 'I' for Inactive)
REMARK    1  A    between atoms: C_13  and  S_15
REMARK    2  A    between atoms: S_15  and  C_16
REMARK    3  A    between atoms: C_16  and  C_17
REMARK    4  A    between atoms: N_19  and  C_20
REMARK    5  A    between atoms: C_20  and  C_21
REMARK                            x       y       z     vdW  Elec       q    Type
REMARK                         _______ _______ _______ _____ _____    ______ ____
ROOT
ATOM      1  C   UNL     1      -0.016   1.348   0.009  0.00  0.00    +0.001 A 
ATOM      2  C   UNL     1       1.156   2.116   0.002  0.00  0.00    +0.002 A 
ATOM      3  C   UNL     1       2.382   1.544  -0.006  0.00  0.00    +0.026 A 
ATOM      4  C   UNL     1       2.491   0.080  -0.009  0.00  0.00    +0.046 A 
ATOM      5  N   UNL     1       3.530  -0.719  -0.048  0.00  0.00    -0.358 N 
ATOM      6  C   UNL     1       3.072  -2.091   0.097  0.00  0.00    +0.252 C 
ATOM      7  C   UNL     1       1.560  -2.038  -0.034  0.00  0.00    +0.117 C 
ATOM      8  C   UNL     1       1.230  -0.705  -0.013  0.00  0.00    +0.025 A 
ATOM      9  C   UNL     1       0.002  -0.004   0.002  0.00  0.00    +0.012 A 
ATOM     10  N   UNL     1       0.837  -3.136  -0.265  0.00  0.00    -0.147 NA
ATOM     11  N   UNL     1       1.456  -4.093  -0.888  0.00  0.00    -0.122 NA
ATOM     12  C   UNL     1       2.730  -3.957  -1.333  0.00  0.00    +0.208 C 
ATOM     13  N   UNL     1       3.548  -3.009  -0.936  0.00  0.00    -0.227 NA
ATOM     14  H   UNL     1       4.453  -0.440  -0.157  0.00  0.00    +0.162 HD
ENDROOT
BRANCH  12  15
ATOM     15  S   UNL     1       3.325  -5.124  -2.510  0.00  0.00    -0.075 S 
BRANCH  15  16
ATOM     16  C   UNL     1       5.030  -4.593  -2.831  0.00  0.00    +0.173 C 
BRANCH  16  17
ATOM     17  C   UNL     1       5.665  -5.520  -3.836  0.00  0.00    +0.224 C 
ATOM     18  O   UNL     1       5.029  -6.447  -4.291  0.00  0.00    -0.275 OA
ATOM     19  N   UNL     1       6.938  -5.319  -4.228  0.00  0.00    -0.311 N 
ATOM     20  H   UNL     1       7.446  -4.577  -3.864  0.00  0.00    +0.149 HD
BRANCH  19  21
ATOM     21  C   UNL     1       7.555  -6.220  -5.205  0.00  0.00    +0.139 C 
BRANCH  21  22
ATOM     22  C   UNL     1       8.971  -5.779  -5.471  0.00  0.00    -0.030 A 
ATOM     23  C   UNL     1       9.234  -4.870  -6.480  0.00  0.00    +0.008 A 
ATOM     24  C   UNL     1      10.532  -4.465  -6.724  0.00  0.00    +0.038 A 
ATOM     25  C   UNL     1      11.570  -4.969  -5.959  0.00  0.00    +0.123 A 
ATOM     26  C   UNL     1      11.306  -5.878  -4.949  0.00  0.00    +0.038 A 
ATOM     27  C   UNL     1      10.006  -6.278  -4.702  0.00  0.00    +0.008 A 
ATOM     28  F   UNL     1      12.840  -4.573  -6.197  0.00  0.00    -0.205 F 
ENDBRANCH  21  22
ENDBRANCH  19  21
ENDBRANCH  16  17
ENDBRANCH  15  16
ENDBRANCH  12  15
TORSDOF 5
