REMARK  Name = ZINC39630587
REMARK  13 active torsions:
REMARK  status: ('A' for Active; 'I' for Inactive)
REMARK    1  A    between atoms: C_1  and  C_2
REMARK    2  A    between atoms: C_2  and  O_4
REMARK    3  A    between atoms: O_4  and  C_5
REMARK    4  A    between atoms: C_10  and  C_11
REMARK    5  A    between atoms: C_15  and  C_24
REMARK    6  A    between atoms: N_26  and  C_27
REMARK    7  A    between atoms: C_27  and  C_28
REMARK    8  A    between atoms: C_28  and  C_29
REMARK    9  A    between atoms: C_28  and  C_30
REMARK   10  A    between atoms: C_28  and  C_31
REMARK   11  A    between atoms: C_31  and  N_32
REMARK   12  A    between atoms: N_32  and  C_33
REMARK   13  A    between atoms: N_32  and  C_34
REMARK                            x       y       z     vdW  Elec       q    Type
REMARK                         _______ _______ _______ _____ _____    ______ ____
ROOT
ATOM      1  C   UNL     1       0.026  -1.574  -5.126  0.00  0.00    +0.250 C 
ATOM      2  O   UNL     1      -0.013  -0.364  -5.234  0.00  0.00    -0.270 OA
ATOM      3  N   UNL     1      -0.233  -2.354  -6.194  0.00  0.00    -0.296 N 
ATOM      4  C   UNL     1      -0.158  -3.832  -6.280  0.00  0.00    +0.121 C 
ATOM      5  C   UNL     1      -1.372  -4.235  -7.146  0.00  0.00    +0.100 C 
ATOM      6  C   UNL     1      -1.694  -2.983  -7.978  0.00  0.00    -0.004 C 
ATOM      7  C   UNL     1      -0.664  -1.928  -7.547  0.00  0.00    +0.115 C 
ATOM      8  C   UNL     1      -3.104  -2.490  -7.668  0.00  0.00    -0.010 C 
ATOM      9  C   UNL     1      -3.422  -1.279  -8.549  0.00  0.00    -0.082 C 
ATOM     10  N   UNL     1      -3.314  -1.657  -9.963  0.00  0.00    +0.379 N 
ATOM     11  C   UNL     1      -1.932  -2.041 -10.274  0.00  0.00    -0.082 C 
ATOM     12  C   UNL     1      -1.551  -3.285  -9.466  0.00  0.00    -0.010 C 
ATOM     13  H   UNL     1      -3.928  -2.436 -10.149  0.00  0.00    -0.086 HD
ATOM     14  H   UNL     1      -3.583  -0.875 -10.541  0.00  0.00    -0.086 HD
ENDROOT
BRANCH   1  20
ATOM     15  C   UNL     1      -0.119  -1.620  -2.636  0.00  0.00    +0.144 A 
ATOM     16  C   UNL     1       0.192  -2.210  -1.421  0.00  0.00    +0.047 A 
ATOM     17  C   UNL     1       0.970  -3.350  -1.383  0.00  0.00    +0.004 A 
ATOM     18  C   UNL     1       1.445  -3.913  -2.556  0.00  0.00    +0.001 A 
ATOM     19  C   UNL     1       1.146  -3.340  -3.773  0.00  0.00    +0.017 A 
ATOM     20  C   UNL     1       0.355  -2.190  -3.826  0.00  0.00    +0.079 A 
BRANCH  15  21
ATOM     21  O   UNL     1      -0.883  -0.499  -2.675  0.00  0.00    -0.425 OA
BRANCH  21  23
ATOM     22  C   UNL     1      -3.111   0.559  -2.799  0.00  0.00    +0.136 C 
ATOM     23  C   UNL     1      -2.205  -0.644  -2.862  0.00  0.00    +0.309 C 
ATOM     24  O   UNL     1      -2.668  -1.738  -3.081  0.00  0.00    -0.251 OA
ENDBRANCH  21  23
ENDBRANCH  15  21
ENDBRANCH   1  20
BRANCH   5  25
ATOM     25  C   UNL     1      -2.542  -4.602  -6.271  0.00  0.00    +0.218 C 
ATOM     26  O   UNL     1      -2.716  -4.026  -5.218  0.00  0.00    -0.275 OA
ATOM     27  N   UNL     1      -3.397  -5.570  -6.658  0.00  0.00    -0.315 N 
ATOM     28  H   UNL     1      -3.258  -6.030  -7.500  0.00  0.00    +0.149 HD
BRANCH  27  29
ATOM     29  C   UNL     1      -4.535  -5.926  -5.807  0.00  0.00    +0.108 C 
BRANCH  29  30
ATOM     30  C   UNL     1      -5.340  -7.044  -6.473  0.00  0.00    -0.034 C 
ATOM     31  C   UNL     1      -5.850  -6.563  -7.833  0.00  0.00    +0.010 C 
ATOM     32  C   UNL     1      -4.445  -8.270  -6.669  0.00  0.00    +0.010 C 
BRANCH  30  33
ATOM     33  C   UNL     1      -6.528  -7.416  -5.585  0.00  0.00    -0.072 C 
BRANCH  33  34
ATOM     34  N   UNL     1      -7.279  -8.514  -6.207  0.00  0.00    +0.376 N 
ATOM     35  C   UNL     1      -6.681  -9.798  -5.818  0.00  0.00    -0.097 C 
ATOM     36  C   UNL     1      -8.677  -8.468  -5.756  0.00  0.00    -0.097 C 
ATOM     37  H   UNL     1      -7.247  -8.418  -7.210  0.00  0.00    -0.083 HD
ENDBRANCH  33  34
ENDBRANCH  30  33
ENDBRANCH  29  30
ENDBRANCH  27  29
ENDBRANCH   5  25
TORSDOF 8
