REMARK  Name = ZINC12796991
REMARK  17 active torsions:
REMARK  status: ('A' for Active; 'I' for Inactive)
REMARK    1  A    between atoms: C_1  and  C_2
REMARK    2  A    between atoms: C_2  and  C_3
REMARK    3  A    between atoms: C_2  and  C_4
REMARK    4  A    between atoms: C_4  and  C_5
REMARK    5  A    between atoms: C_5  and  C_7
REMARK    6  A    between atoms: C_5  and  N_59
REMARK    7  A    between atoms: C_7  and  N_8
REMARK    8  A    between atoms: N_8  and  C_9
REMARK    9  A    between atoms: C_12  and  S_18
REMARK   10  A    between atoms: C_14  and  N_15
REMARK   11  A    between atoms: S_18  and  N_21
REMARK   12  A    between atoms: N_21  and  C_22
REMARK   13  A    between atoms: C_22  and  C_23
REMARK   14  A    between atoms: C_22  and  C_24
REMARK   15  A    between atoms: C_22  and  C_25
REMARK   16  A    between atoms: C_26  and  N_59
REMARK   17  A    between atoms: C_27  and  N_59
REMARK                            x       y       z     vdW  Elec       q    Type
REMARK                         _______ _______ _______ _____ _____    ______ ____
ROOT
ATOM      1  C   UNL     1      -0.296   6.670  -4.634  0.00  0.00    +0.058 A 
ATOM      2  C   UNL     1       0.659   6.696  -3.625  0.00  0.00    +0.027 A 
ATOM      3  C   UNL     1       0.265   6.787  -2.305  0.00  0.00    +0.030 A 
ATOM      4  C   UNL     1      -1.080   6.842  -1.986  0.00  0.00    +0.108 A 
ATOM      5  C   UNL     1      -2.033   6.816  -2.987  0.00  0.00    +0.063 A 
ATOM      6  C   UNL     1      -1.645   6.731  -4.310  0.00  0.00    +0.149 A 
ENDROOT
BRANCH   6   7
ATOM      7  N   UNL     1      -2.666   6.704  -5.381  0.00  0.00    +0.058 N 
ATOM      8  O   UNL     1      -2.471   7.304  -6.423  0.00  0.00    -0.126 OA
ATOM      9  O   UNL     1      -3.701   6.082  -5.221  0.00  0.00    -0.126 OA
ENDBRANCH   6   7
BRANCH   4  10
ATOM     10  S   UNL     1      -1.579   6.952  -0.299  0.00  0.00    +0.059 S 
ATOM     11  O   UNL     1      -2.920   7.424  -0.303  0.00  0.00    -0.153 OA
ATOM     12  O   UNL     1      -0.536   7.626   0.390  0.00  0.00    -0.153 OA
BRANCH  10  13
ATOM     13  N   UNL     1      -1.622   5.409   0.300  0.00  0.00    -0.185 NA
ATOM     14  H   UNL     1      -0.993   5.137   0.986  0.00  0.00    +0.149 HD
BRANCH  13  15
ATOM     15  C   UNL     1      -2.615   4.455  -0.202  0.00  0.00    +0.032 C 
ATOM     16  C   UNL     1      -2.529   4.385  -1.728  0.00  0.00    +0.029 C 
ATOM     17  C   UNL     1      -2.337   3.071   0.389  0.00  0.00    +0.029 C 
ATOM     18  C   UNL     1      -4.016   4.913   0.209  0.00  0.00    +0.029 C 
ENDBRANCH  13  15
ENDBRANCH  10  13
ENDBRANCH   4  10
BRANCH   1  19
ATOM     19  N   UNL     1       0.100   6.584  -5.970  0.00  0.00    -0.344 N 
ATOM     20  H   UNL     1      -0.567   6.585  -6.675  0.00  0.00    +0.146 HD
BRANCH  19  21
ATOM     21  C   UNL     1       1.523   6.493  -6.309  0.00  0.00    +0.086 C 
BRANCH  21  22
ATOM     22  C   UNL     1       1.675   6.258  -7.813  0.00  0.00    -0.052 C 
BRANCH  22  25
ATOM     23  C   UNL     1       1.872   3.891  -7.347  0.00  0.00    -0.096 C 
ATOM     24  C   UNL     1      -0.267   4.824  -7.990  0.00  0.00    -0.096 C 
ATOM     25  N   UNL     1       1.196   4.909  -8.178  0.00  0.00    +0.379 N 
ATOM     26  H   UNL     1       1.416   4.733  -9.166  0.00  0.00    -0.082 HD
ENDBRANCH  22  25
BRANCH  22  27
ATOM     27  C   UNL     1       3.150   6.381  -8.201  0.00  0.00    -0.011 C 
BRANCH  27  29
ATOM     28  C   UNL     1       2.651   7.444 -10.406  0.00  0.00    +0.007 C 
ATOM     29  C   UNL     1       3.292   6.238  -9.718  0.00  0.00    -0.019 C 
ATOM     30  C   UNL     1       4.775   6.168 -10.087  0.00  0.00    +0.007 C 
ENDBRANCH  27  29
ENDBRANCH  22  27
ENDBRANCH  21  22
ENDBRANCH  19  21
ENDBRANCH   1  19
TORSDOF 10
