REMARK  Name = ZINC54199089
REMARK  8 active torsions:
REMARK  status: ('A' for Active; 'I' for Inactive)
REMARK    1  A    between atoms: C_1  and  C_2
REMARK    2  A    between atoms: C_2  and  C_3
REMARK    3  A    between atoms: C_3  and  C_11
REMARK    4  A    between atoms: C_14  and  N_17
REMARK    5  A    between atoms: C_18  and  C_20
REMARK    6  A    between atoms: C_23  and  C_26
REMARK    7  A    between atoms: C_26  and  C_27
REMARK    8  A    between atoms: C_26  and  C_28
REMARK                            x       y       z     vdW  Elec       q    Type
REMARK                         _______ _______ _______ _____ _____    ______ ____
ROOT
ATOM      1  C   UNL     1      -2.212  -0.160   1.120  0.00  0.00    -0.032 A 
ATOM      2  C   UNL     1      -2.759  -1.077   1.999  0.00  0.00    +0.006 A 
ATOM      3  C   UNL     1      -3.503  -0.642   3.078  0.00  0.00    +0.023 A 
ATOM      4  C   UNL     1      -3.701   0.718   3.280  0.00  0.00    +0.034 A 
ATOM      5  C   UNL     1      -3.150   1.636   2.396  0.00  0.00    +0.023 A 
ATOM      6  C   UNL     1      -2.403   1.194   1.322  0.00  0.00    +0.006 A 
ENDROOT
BRANCH   1   7
ATOM      7  C   UNL     1      -1.400  -0.639  -0.056  0.00  0.00    +0.072 C 
ATOM      8  C   UNL     1      -1.232  -2.160   0.020  0.00  0.00    +0.030 C 
ATOM      9  C   UNL     1      -0.502  -2.634  -1.241  0.00  0.00    +0.097 C 
ATOM     10  C   UNL     1      -1.262  -2.170  -2.456  0.00  0.00    +0.219 C 
ATOM     11  O   UNL     1      -1.208  -2.824  -3.475  0.00  0.00    -0.275 OA
ATOM     12  N   UNL     1      -1.997  -1.048  -2.431  0.00  0.00    -0.256 N 
ATOM     13  C   UNL     1      -2.111  -0.283  -1.335  0.00  0.00    +0.230 C 
ATOM     14  O   UNL     1      -2.799   0.714  -1.376  0.00  0.00    -0.274 OA
ATOM     15  H   UNL     1      -2.464  -0.780  -3.237  0.00  0.00    +0.157 HD
BRANCH   7  17
ATOM     16  C   UNL     1       0.679  -0.297   1.286  0.00  0.00    +0.005 C 
ATOM     17  C   UNL     1      -0.024   0.029  -0.033  0.00  0.00    +0.017 C 
ENDBRANCH   7  17
ENDBRANCH   1   7
BRANCH   4  18
ATOM     18  N   UNL     1      -4.455   1.161   4.372  0.00  0.00    -0.282 N 
ATOM     19  C   UNL     1      -4.432   0.473   5.531  0.00  0.00    +0.248 C 
ATOM     20  O   UNL     1      -3.687  -0.478   5.658  0.00  0.00    -0.270 OA
ATOM     21  H   UNL     1      -4.994   1.964   4.295  0.00  0.00    +0.155 HD
BRANCH  19  22
ATOM     22  C   UNL     1      -5.314   0.876   6.646  0.00  0.00    +0.037 A 
ATOM     23  C   UNL     1      -6.176   1.965   6.501  0.00  0.00    +0.013 A 
ATOM     24  C   UNL     1      -6.997   2.335   7.546  0.00  0.00    +0.004 A 
ATOM     25  C   UNL     1      -6.967   1.630   8.737  0.00  0.00    -0.045 A 
ATOM     26  C   UNL     1      -6.115   0.550   8.887  0.00  0.00    +0.004 A 
ATOM     27  C   UNL     1      -5.293   0.166   7.848  0.00  0.00    +0.013 A 
BRANCH  25  28
ATOM     28  C   UNL     1      -7.865   2.041   9.874  0.00  0.00    +0.013 C 
ATOM     29  C   UNL     1      -8.796   0.881  10.233  0.00  0.00    +0.012 C 
ATOM     30  C   UNL     1      -7.013   2.406  11.091  0.00  0.00    +0.012 C 
ENDBRANCH  25  28
ENDBRANCH  19  22
ENDBRANCH   4  18
TORSDOF 5
