REMARK  Name = ZINC35520261
REMARK  12 active torsions:
REMARK  status: ('A' for Active; 'I' for Inactive)
REMARK    1  A    between atoms: C_1  and  C_2
REMARK    2  A    between atoms: C_3  and  C_14
REMARK    3  A    between atoms: C_14  and  C_16
REMARK    4  A    between atoms: N_20  and  C_32
REMARK    5  A    between atoms: C_21  and  C_23
REMARK    6  A    between atoms: C_26  and  C_29
REMARK    7  A    between atoms: C_29  and  C_30
REMARK    8  A    between atoms: C_29  and  C_31
REMARK    9  A    between atoms: C_32  and  C_33
REMARK   10  A    between atoms: C_33  and  N_34
REMARK   11  A    between atoms: N_34  and  C_35
REMARK   12  A    between atoms: N_34  and  C_36
REMARK                            x       y       z     vdW  Elec       q    Type
REMARK                         _______ _______ _______ _____ _____    ______ ____
ROOT
ATOM      1  C   UNL     1      -0.088   1.204  -2.428  0.00  0.00    +0.077 C 
ATOM      2  C   UNL     1      -0.340   1.573  -3.705  0.00  0.00    +0.249 C 
ATOM      3  C   UNL     1      -0.193   3.038  -3.824  0.00  0.00    +0.288 C 
ATOM      4  O   UNL     1      -0.355   3.673  -4.847  0.00  0.00    -0.266 OA
ATOM      5  N   UNL     1       0.144   3.565  -2.633  0.00  0.00    -0.285 N 
ATOM      6  C   UNL     1       0.231   2.467  -1.663  0.00  0.00    +0.145 C 
ATOM      7  O   UNL     1      -0.672   0.734  -4.713  0.00  0.00    -0.282 OA
ENDROOT
BRANCH   6   8
ATOM      8  C   UNL     1       1.625   2.390  -1.095  0.00  0.00    -0.022 A 
ATOM      9  C   UNL     1       2.710   2.742  -1.877  0.00  0.00    +0.006 A 
ATOM     10  C   UNL     1       3.989   2.672  -1.356  0.00  0.00    +0.004 A 
ATOM     11  C   UNL     1       4.182   2.251  -0.054  0.00  0.00    -0.045 A 
ATOM     12  C   UNL     1       3.098   1.900   0.728  0.00  0.00    +0.004 A 
ATOM     13  C   UNL     1       1.819   1.974   0.209  0.00  0.00    +0.006 A 
BRANCH  11  14
ATOM     14  C   UNL     1       5.576   2.173   0.514  0.00  0.00    +0.013 C 
ATOM     15  C   UNL     1       5.684   3.095   1.730  0.00  0.00    +0.012 C 
ATOM     16  C   UNL     1       5.875   0.734   0.937  0.00  0.00    +0.012 C 
ENDBRANCH  11  14
ENDBRANCH   6   8
BRANCH   1  17
ATOM     17  C   UNL     1      -0.126  -0.160  -1.888  0.00  0.00    +0.203 C 
ATOM     18  O   UNL     1      -1.055  -0.511  -1.182  0.00  0.00    -0.286 OA
BRANCH  17  21
ATOM     19  C   UNL     1       2.184   0.348  -3.788  0.00  0.00    +0.065 C 
ATOM     20  C   UNL     1       2.014  -0.944  -3.031  0.00  0.00    +0.041 A 
ATOM     21  C   UNL     1       0.956  -1.102  -2.198  0.00  0.00    +0.082 A 
ATOM     22  S   UNL     1       1.223  -2.755  -1.577  0.00  0.00    -0.046 S 
ATOM     23  C   UNL     1       2.720  -3.103  -2.474  0.00  0.00    +0.179 A 
ATOM     24  N   UNL     1       2.923  -1.948  -3.195  0.00  0.00    -0.290 N 
ATOM     25  C   UNL     1       4.097  -2.178  -3.928  0.00  0.00    +0.074 A 
ATOM     26  C   UNL     1       4.815  -1.403  -4.824  0.00  0.00    +0.028 A 
ATOM     27  C   UNL     1       5.962  -1.911  -5.402  0.00  0.00    +0.002 A 
ATOM     28  C   UNL     1       6.399  -3.190  -5.090  0.00  0.00    +0.002 A 
ATOM     29  C   UNL     1       5.696  -3.972  -4.201  0.00  0.00    +0.030 A 
ATOM     30  C   UNL     1       4.533  -3.472  -3.607  0.00  0.00    +0.091 A 
ATOM     31  N   UNL     1       3.652  -3.981  -2.709  0.00  0.00    -0.221 NA
ENDBRANCH  17  21
ENDBRANCH   1  17
BRANCH   5  32
ATOM     32  C   UNL     1       0.378   4.984  -2.353  0.00  0.00    +0.090 C 
BRANCH  32  33
ATOM     33  C   UNL     1      -0.937   5.644  -1.933  0.00  0.00    -0.060 C 
BRANCH  33  34
ATOM     34  N   UNL     1      -0.703   7.066  -1.652  0.00  0.00    +0.377 N 
ATOM     35  C   UNL     1      -1.984   7.726  -1.365  0.00  0.00    -0.097 C 
ATOM     36  C   UNL     1       0.186   7.196  -0.490  0.00  0.00    -0.097 C 
ATOM     37  H   UNL     1      -0.273   7.501  -2.454  0.00  0.00    -0.083 HD
ENDBRANCH  33  34
ENDBRANCH  32  33
ENDBRANCH   5  32
TORSDOF 7
