REMARK  Name = ZINC03367753
REMARK  8 active torsions:
REMARK  status: ('A' for Active; 'I' for Inactive)
REMARK    1  A    between atoms: C_1  and  C_2
REMARK    2  A    between atoms: C_2  and  C_3
REMARK    3  A    between atoms: C_2  and  C_4
REMARK    4  A    between atoms: C_2  and  C_5
REMARK    5  A    between atoms: C_8  and  C_11
REMARK    6  A    between atoms: C_11  and  N_12
REMARK    7  A    between atoms: C_15  and  C_19
REMARK    8  A    between atoms: C_15  and  C_25
REMARK                            x       y       z     vdW  Elec       q    Type
REMARK                         _______ _______ _______ _____ _____    ______ ____
ROOT
ATOM      1  N   UNL     1      -0.639   1.410   1.519  0.00  0.00    -0.219 N 
ATOM      2  C   UNL     1      -0.269   1.601   2.801  0.00  0.00    +0.256 C 
ATOM      3  O   UNL     1       0.611   1.022   3.403  0.00  0.00    -0.272 OA
ATOM      4  C   UNL     1      -1.179   2.690   3.333  0.00  0.00    +0.164 C 
ATOM      5  N   UNL     1      -2.037   3.017   2.181  0.00  0.00    -0.278 N 
ATOM      6  C   UNL     1      -1.643   2.222   1.170  0.00  0.00    +0.310 C 
ATOM      7  O   UNL     1      -2.145   2.238   0.063  0.00  0.00    -0.252 OA
ATOM      8  H   UNL     1      -2.746   3.678   2.156  0.00  0.00    +0.152 HD
ENDROOT
BRANCH   4   9
ATOM      9  C   UNL     1      -2.007   2.174   4.482  0.00  0.00    -0.011 A 
ATOM     10  C   UNL     1      -1.401   1.485   5.516  0.00  0.00    +0.006 A 
ATOM     11  C   UNL     1      -2.160   1.016   6.572  0.00  0.00    +0.000 A 
ATOM     12  C   UNL     1      -3.526   1.228   6.589  0.00  0.00    +0.000 A 
ATOM     13  C   UNL     1      -4.133   1.912   5.552  0.00  0.00    +0.000 A 
ATOM     14  C   UNL     1      -3.373   2.385   4.498  0.00  0.00    +0.006 A 
ENDBRANCH   4   9
BRANCH   4  15
ATOM     15  C   UNL     1      -0.376   3.893   3.754  0.00  0.00    -0.011 A 
ATOM     16  C   UNL     1       0.698   3.742   4.611  0.00  0.00    +0.006 A 
ATOM     17  C   UNL     1       1.438   4.845   4.994  0.00  0.00    +0.000 A 
ATOM     18  C   UNL     1       1.097   6.101   4.528  0.00  0.00    +0.000 A 
ATOM     19  C   UNL     1       0.019   6.253   3.676  0.00  0.00    +0.000 A 
ATOM     20  C   UNL     1      -0.718   5.149   3.289  0.00  0.00    +0.006 A 
ENDBRANCH   4  15
BRANCH   1  21
ATOM     21  C   UNL     1      -0.015   0.438   0.618  0.00  0.00    +0.153 C 
BRANCH  21  25
ATOM     22  C   UNL     1      -2.056  -3.302   0.923  0.00  0.00    -0.042 A 
ATOM     23  C   UNL     1      -2.470  -2.362  -0.002  0.00  0.00    +0.004 A 
ATOM     24  C   UNL     1      -1.809  -1.152  -0.101  0.00  0.00    +0.005 A 
ATOM     25  C   UNL     1      -0.735  -0.881   0.726  0.00  0.00    -0.030 A 
ATOM     26  C   UNL     1      -0.318  -1.823   1.647  0.00  0.00    +0.005 A 
ATOM     27  C   UNL     1      -0.981  -3.032   1.749  0.00  0.00    +0.004 A 
BRANCH  22  29
ATOM     28  C   UNL     1      -2.695  -5.358  -0.307  0.00  0.00    +0.015 C 
ATOM     29  C   UNL     1      -2.777  -4.621   1.031  0.00  0.00    -0.013 C 
ATOM     30  C   UNL     1      -2.124  -5.471   2.123  0.00  0.00    +0.015 C 
ATOM     31  C   UNL     1      -4.244  -4.372   1.388  0.00  0.00    +0.015 C 
ENDBRANCH  22  29
ENDBRANCH  21  25
ENDBRANCH   1  21
TORSDOF 5
