REMARK  Name = ZINC01077384
REMARK  9 active torsions:
REMARK  status: ('A' for Active; 'I' for Inactive)
REMARK    1  A    between atoms: C_1  and  C_2
REMARK    2  A    between atoms: C_2  and  O_3
REMARK    3  A    between atoms: O_3  and  C_4
REMARK    4  A    between atoms: C_7  and  C_12
REMARK    5  A    between atoms: C_9  and  O_10
REMARK    6  A    between atoms: O_10  and  C_11
REMARK    7  A    between atoms: C_17  and  C_27
REMARK    8  A    between atoms: C_30  and  C_36
REMARK    9  A    between atoms: C_31  and  N_33
REMARK                            x       y       z     vdW  Elec       q    Type
REMARK                         _______ _______ _______ _____ _____    ______ ____
ROOT
ATOM      1  C   UNL     1      -2.125  -0.857  -3.830  0.00  0.00    +0.032 C 
ATOM      2  C   UNL     1      -2.643  -1.799  -2.744  0.00  0.00    +0.059 C 
ATOM      3  C   UNL     1      -2.501  -1.147  -1.380  0.00  0.00    +0.017 C 
ATOM      4  C   UNL     1      -2.608   0.187  -1.245  0.00  0.00    +0.036 C 
ATOM      5  C   UNL     1      -2.501   0.958   0.048  0.00  0.00    +0.136 C 
ATOM      6  N   UNL     1      -2.522   0.137   1.240  0.00  0.00    -0.331 N 
ATOM      7  C   UNL     1      -1.501  -0.770   1.507  0.00  0.00    +0.049 A 
ATOM      8  C   UNL     1      -0.625  -0.584   2.564  0.00  0.00    +0.025 A 
ATOM      9  C   UNL     1       0.445  -1.448   2.720  0.00  0.00    +0.002 A 
ATOM     10  C   UNL     1       0.639  -2.489   1.831  0.00  0.00    +0.002 A 
ATOM     11  C   UNL     1      -0.248  -2.691   0.786  0.00  0.00    +0.025 A 
ATOM     12  C   UNL     1      -1.328  -1.838   0.640  0.00  0.00    +0.052 A 
ATOM     13  N   UNL     1      -2.282  -2.010  -0.355  0.00  0.00    -0.316 N 
ATOM     14  C   UNL     1      -2.840   1.000  -2.380  0.00  0.00    +0.163 C 
ATOM     15  O   UNL     1      -2.951   2.201  -2.228  0.00  0.00    -0.292 OA
ATOM     16  C   UNL     1      -2.953   0.432  -3.763  0.00  0.00    +0.088 C 
ATOM     17  H   UNL     1      -3.259   0.221   1.865  0.00  0.00    +0.147 HD
ATOM     18  H   UNL     1      -2.833  -2.808  -0.316  0.00  0.00    +0.152 HD
ENDROOT
BRANCH   5  19
ATOM     19  C   UNL     1      -1.213   1.740   0.031  0.00  0.00    -0.021 A 
ATOM     20  C   UNL     1      -1.243   3.122   0.061  0.00  0.00    +0.006 A 
ATOM     21  C   UNL     1      -0.062   3.840   0.052  0.00  0.00    +0.006 A 
ATOM     22  C   UNL     1       1.150   3.176   0.006  0.00  0.00    -0.020 A 
ATOM     23  C   UNL     1       1.180   1.794  -0.030  0.00  0.00    +0.129 A 
ATOM     24  C   UNL     1      -0.002   1.077  -0.020  0.00  0.00    +0.038 A 
ATOM     25  C   UNL     1       2.438   3.958  -0.004  0.00  0.00    +0.046 C 
BRANCH  23  26
ATOM     26  N   UNL     1       2.477   1.083  -0.078  0.00  0.00    +0.057 N 
ATOM     27  O   UNL     1       2.504  -0.125  -0.228  0.00  0.00    -0.126 OA
ATOM     28  O   UNL     1       3.518   1.707   0.031  0.00  0.00    -0.126 OA
ENDBRANCH  23  26
ENDBRANCH   5  19
BRANCH   1  32
ATOM     29  C   UNL     1      -2.593  -2.679  -7.670  0.00  0.00    +0.162 A 
ATOM     30  C   UNL     1      -3.700  -2.446  -6.871  0.00  0.00    +0.050 A 
ATOM     31  C   UNL     1      -3.546  -1.857  -5.630  0.00  0.00    +0.008 A 
ATOM     32  C   UNL     1      -2.288  -1.499  -5.183  0.00  0.00    -0.040 A 
ATOM     33  C   UNL     1      -1.179  -1.724  -5.978  0.00  0.00    +0.053 A 
ATOM     34  C   UNL     1      -1.326  -2.318  -7.221  0.00  0.00    +0.162 A 
BRANCH  34  35
ATOM     35  O   UNL     1      -0.236  -2.545  -8.001  0.00  0.00    -0.491 OA
ATOM     36  C   UNL     1       1.033  -2.149  -7.475  0.00  0.00    +0.277 C 
ENDBRANCH  34  35
BRANCH  29  37
ATOM     37  O   UNL     1      -2.743  -3.258  -8.892  0.00  0.00    -0.489 OA
BRANCH  37  39
ATOM     38  C   UNL     1      -4.042  -4.236 -10.679  0.00  0.00    +0.048 C 
ATOM     39  C   UNL     1      -4.072  -3.601  -9.288  0.00  0.00    +0.226 C 
ENDBRANCH  37  39
ENDBRANCH  29  37
ENDBRANCH   1  32
TORSDOF 6
