REMARK  Name = ZINC26645363
REMARK  9 active torsions:
REMARK  status: ('A' for Active; 'I' for Inactive)
REMARK    1  A    between atoms: C_1  and  N_2
REMARK    2  A    between atoms: N_2  and  C_3
REMARK    3  A    between atoms: N_2  and  S_28
REMARK    4  A    between atoms: C_3  and  C_4
REMARK    5  A    between atoms: C_4  and  C_6
REMARK    6  A    between atoms: C_4  and  C_23
REMARK    7  A    between atoms: C_6  and  C_7
REMARK    8  A    between atoms: C_7  and  N_8
REMARK    9  A    between atoms: S_28  and  C_31
REMARK                            x       y       z     vdW  Elec       q    Type
REMARK                         _______ _______ _______ _____ _____    ______ ____
ROOT
ATOM      1  C   UNL     1       0.918   5.160   0.020  0.00  0.00    +0.040 C 
ENDROOT
BRANCH   1   2
ATOM      2  C   UNL     1       0.421   3.738   0.017  0.00  0.00    -0.006 A 
ATOM      3  C   UNL     1      -0.855   3.279   0.027  0.00  0.00    +0.011 A 
ATOM      4  C   UNL     1      -1.077   1.915   0.017  0.00  0.00    +0.008 A 
ATOM      5  C   UNL     1      -0.013   1.076   0.008  0.00  0.00    +0.045 A 
ATOM      6  S   UNL     1       1.359   2.219   0.001  0.00  0.00    -0.101 S 
ENDBRANCH   1   2
BRANCH   1   7
ATOM      7  C   UNL     1       1.756   5.410  -1.236  0.00  0.00    +0.117 C 
BRANCH   7   9
ATOM      8  C   UNL     1       0.649   3.987  -3.022  0.00  0.00    +0.131 C 
ATOM      9  N   UNL     1       0.902   5.299  -2.422  0.00  0.00    -0.179 NA
BRANCH   9  10
ATOM     10  S   UNL     1       0.225   6.657  -3.084  0.00  0.00    +0.061 S 
ATOM     11  O   UNL     1      -0.926   6.230  -3.800  0.00  0.00    -0.153 OA
ATOM     12  O   UNL     1       0.160   7.626  -2.046  0.00  0.00    -0.153 OA
BRANCH  10  13
ATOM     13  C   UNL     1       1.361   7.276  -4.281  0.00  0.00    +0.105 A 
ATOM     14  C   UNL     1       2.325   8.194  -3.909  0.00  0.00    +0.028 A 
ATOM     15  C   UNL     1       3.219   8.675  -4.846  0.00  0.00    +0.002 A 
ATOM     16  C   UNL     1       3.143   8.247  -6.158  0.00  0.00    +0.000 A 
ATOM     17  C   UNL     1       2.175   7.333  -6.532  0.00  0.00    +0.002 A 
ATOM     18  C   UNL     1       1.284   6.847  -5.593  0.00  0.00    +0.028 A 
ENDBRANCH  10  13
ENDBRANCH   9  10
ENDBRANCH   7   9
ENDBRANCH   1   7
BRANCH   1  19
ATOM     19  C   UNL     1       1.779   5.398   1.262  0.00  0.00    -0.009 C 
BRANCH  19  20
ATOM     20  C   UNL     1       0.911   5.271   2.516  0.00  0.00    -0.078 C 
BRANCH  20  21
ATOM     21  N   UNL     1       1.737   5.499   3.709  0.00  0.00    +0.380 N 
ATOM     22  C   UNL     1       2.742   4.439   3.863  0.00  0.00    -0.078 C 
ATOM     23  C   UNL     1       3.675   4.785   5.026  0.00  0.00    -0.006 C 
ATOM     24  C   UNL     1       2.850   4.924   6.310  0.00  0.00    +0.005 C 
ATOM     25  C   UNL     1       1.780   6.001   6.106  0.00  0.00    -0.006 C 
ATOM     26  C   UNL     1       0.903   5.620   4.911  0.00  0.00    -0.078 C 
ATOM     27  C   UNL     1       2.148   3.576   6.593  0.00  0.00    +0.120 C 
ATOM     28  S   UNL     1       3.385   2.824   7.731  0.00  0.00    +0.055 S 
ATOM     29  O   UNL     1       4.391   2.169   6.970  0.00  0.00    -0.252 OA
ATOM     30  C   UNL     1       4.174   4.315   8.295  0.00  0.00    +0.043 A 
ATOM     31  C   UNL     1       3.759   5.329   7.446  0.00  0.00    -0.025 A 
ATOM     32  C   UNL     1       4.220   6.620   7.721  0.00  0.00    +0.005 A 
ATOM     33  C   UNL     1       5.063   6.864   8.780  0.00  0.00    +0.000 A 
ATOM     34  C   UNL     1       5.477   5.833   9.603  0.00  0.00    +0.001 A 
ATOM     35  C   UNL     1       5.023   4.551   9.351  0.00  0.00    +0.017 A 
ATOM     36  H   UNL     1       2.272   6.450   3.575  0.00  0.00    -0.082 HD
ENDBRANCH  20  21
ENDBRANCH  19  20
ENDBRANCH   1  19
TORSDOF 8
