REMARK  Name = ZINC36017107
REMARK  13 active torsions:
REMARK  status: ('A' for Active; 'I' for Inactive)
REMARK    1  A    between atoms: C_1  and  C_2
REMARK    2  A    between atoms: C_2  and  C_3
REMARK    3  A    between atoms: C_3  and  N_4
REMARK    4  A    between atoms: N_10  and  C_15
REMARK    5  A    between atoms: C_12  and  C_14
REMARK    6  A    between atoms: C_15  and  C_16
REMARK    7  A    between atoms: C_17  and  C_33
REMARK    8  A    between atoms: C_18  and  C_26
REMARK    9  A    between atoms: N_23  and  C_24
REMARK   10  A    between atoms: C_24  and  C_25
REMARK   11  A    between atoms: C_33  and  O_35
REMARK   12  A    between atoms: O_35  and  C_36
REMARK   13  A    between atoms: C_36  and  C_37
REMARK                            x       y       z     vdW  Elec       q    Type
REMARK                         _______ _______ _______ _____ _____    ______ ____
ROOT
ATOM      1  C   UNL     1      -0.634  -8.468   1.855  0.00  0.00    +0.041 C 
ATOM      2  C   UNL     1      -0.262  -9.745   2.090  0.00  0.00    +0.080 C 
ATOM      3  C   UNL     1      -0.571 -10.777   1.026  0.00  0.00    +0.144 C 
ATOM      4  N   UNL     1      -1.258 -10.300  -0.186  0.00  0.00    -0.288 N 
ATOM      5  C   UNL     1      -1.567  -8.992  -0.276  0.00  0.00    +0.307 C 
ATOM      6  O   UNL     1      -2.134  -8.588  -1.272  0.00  0.00    -0.252 OA
ATOM      7  N   UNL     1      -1.274  -8.122   0.699  0.00  0.00    -0.258 N 
ATOM      8  H   UNL     1      -1.483 -10.914  -0.903  0.00  0.00    +0.151 HD
ENDROOT
BRANCH   3   9
ATOM      9  C   UNL     1       0.728 -11.412   0.603  0.00  0.00    -0.021 A 
ATOM     10  C   UNL     1       1.560 -10.759  -0.288  0.00  0.00    +0.006 A 
ATOM     11  C   UNL     1       2.752 -11.341  -0.676  0.00  0.00    +0.002 A 
ATOM     12  C   UNL     1       3.113 -12.577  -0.175  0.00  0.00    +0.020 A 
ATOM     13  C   UNL     1       2.281 -13.232   0.716  0.00  0.00    +0.041 A 
ATOM     14  C   UNL     1       1.091 -12.646   1.109  0.00  0.00    +0.025 A 
ATOM     15 CL   UNL     1       2.734 -14.785   1.345  0.00  0.00    -0.084 Cl
ENDBRANCH   3   9
BRANCH   7  16
ATOM     16  C   UNL     1      -1.655  -6.720   0.513  0.00  0.00    +0.111 C 
ATOM     17  C   UNL     1      -0.558  -5.992  -0.267  0.00  0.00    +0.025 C 
ENDBRANCH   7  16
BRANCH   2  18
ATOM     18  C   UNL     1       0.396 -10.105   3.289  0.00  0.00    +0.339 C 
ATOM     19  O   UNL     1       0.526  -9.288   4.182  0.00  0.00    -0.245 OA
BRANCH  18  20
ATOM     20  O   UNL     1       0.881 -11.355   3.444  0.00  0.00    -0.462 OA
BRANCH  20  21
ATOM     21  C   UNL     1       1.533 -11.650   4.680  0.00  0.00    +0.229 C 
ATOM     22  C   UNL     1       2.011 -13.103   4.671  0.00  0.00    +0.048 C 
ENDBRANCH  20  21
ENDBRANCH  18  20
ENDBRANCH   2  18
BRANCH   1  23
ATOM     23  C   UNL     1      -0.346  -7.409   2.888  0.00  0.00    +0.136 C 
BRANCH  23  30
ATOM     24  N   UNL     1      -3.655  -7.853   8.028  0.00  0.00    -0.299 N 
ATOM     25  C   UNL     1      -3.451  -6.746   7.287  0.00  0.00    +0.303 C 
ATOM     26  O   UNL     1      -3.563  -5.646   7.794  0.00  0.00    -0.253 OA
ATOM     27  N   UNL     1      -3.124  -6.857   5.985  0.00  0.00    -0.280 N 
ATOM     28  C   UNL     1      -3.120  -8.168   5.317  0.00  0.00    +0.125 C 
ATOM     29  C   UNL     1      -1.775  -8.346   4.603  0.00  0.00    +0.104 C 
ATOM     30  N   UNL     1      -1.538  -7.197   3.718  0.00  0.00    -0.294 NA
ATOM     31  C   UNL     1      -1.431  -5.948   4.484  0.00  0.00    +0.107 C 
ATOM     32  C   UNL     1      -2.767  -5.671   5.192  0.00  0.00    +0.088 C 
ATOM     33  C   UNL     1      -2.620  -4.460   6.116  0.00  0.00    +0.029 C 
ATOM     34  H   UNL     1      -3.640  -8.727   7.608  0.00  0.00    +0.150 HD
BRANCH  24  35
ATOM     35  C   UNL     1      -3.901  -7.736   9.468  0.00  0.00    +0.105 C 
BRANCH  35  37
ATOM     36  C   UNL     1      -4.354  -9.009  11.569  0.00  0.00    +0.005 C 
ATOM     37  C   UNL     1      -4.098  -9.131  10.066  0.00  0.00    +0.015 C 
ENDBRANCH  35  37
ENDBRANCH  24  35
ENDBRANCH  23  30
ENDBRANCH   1  23
TORSDOF 9
