REMARK  Name = ZINC22914652
REMARK  11 active torsions:
REMARK  status: ('A' for Active; 'I' for Inactive)
REMARK    1  A    between atoms: C_1  and  C_2
REMARK    2  A    between atoms: C_6  and  C_37
REMARK    3  A    between atoms: C_7  and  O_8
REMARK    4  A    between atoms: O_8  and  C_9
REMARK    5  A    between atoms: C_9  and  C_10
REMARK    6  A    between atoms: C_10  and  C_12
REMARK    7  A    between atoms: C_10  and  O_36
REMARK    8  A    between atoms: C_12  and  N_13
REMARK    9  A    between atoms: N_16  and  C_19
REMARK   10  A    between atoms: C_19  and  C_20
REMARK   11  A    between atoms: C_20  and  N_21
REMARK                            x       y       z     vdW  Elec       q    Type
REMARK                         _______ _______ _______ _____ _____    ______ ____
ROOT
ATOM      1  N   UNL     1       7.089   9.171  -2.200  0.00  0.00    -0.303 NA
ATOM      2  C   UNL     1       7.268   7.825  -2.763  0.00  0.00    +0.066 C 
ATOM      3  C   UNL     1       5.915   7.111  -2.810  0.00  0.00    -0.063 C 
ATOM      4  N   UNL     1       5.353   7.042  -1.454  0.00  0.00    +0.382 N 
ATOM      5  C   UNL     1       5.175   8.387  -0.891  0.00  0.00    -0.063 C 
ATOM      6  C   UNL     1       6.528   9.101  -0.844  0.00  0.00    +0.066 C 
ATOM      7  H   UNL     1       6.068   6.499  -0.817  0.00  0.00    -0.082 HD
ENDROOT
BRANCH   1   8
ATOM      8  C   UNL     1       8.355   9.917  -2.208  0.00  0.00    +0.119 C 
BRANCH   8   9
ATOM      9  C   UNL     1       8.193  11.204  -1.397  0.00  0.00    +0.166 C 
BRANCH   9  10
ATOM     10  O   UNL     1       7.163  12.007  -1.978  0.00  0.00    -0.387 OA
ATOM     11  H   UNL     1       6.139  11.613  -2.059  0.00  0.00    +0.210 HD
ENDBRANCH   9  10
BRANCH   9  12
ATOM     12  C   UNL     1       9.511  11.981  -1.406  0.00  0.00    +0.261 C 
BRANCH  12  13
ATOM     13  O   UNL     1       9.396  13.123  -0.554  0.00  0.00    -0.489 OA
BRANCH  13  20
ATOM     14  C   UNL     1      11.252  12.536   1.493  0.00  0.00    +0.047 C 
ATOM     15  C   UNL     1      11.433  13.687   0.537  0.00  0.00    -0.009 A 
ATOM     16  C   UNL     1      12.544  14.502   0.639  0.00  0.00    +0.007 A 
ATOM     17  C   UNL     1      12.709  15.561  -0.234  0.00  0.00    +0.001 A 
ATOM     18  C   UNL     1      11.764  15.805  -1.214  0.00  0.00    +0.007 A 
ATOM     19  C   UNL     1      10.654  14.990  -1.324  0.00  0.00    -0.009 A 
ATOM     20  C   UNL     1      10.487  13.926  -0.449  0.00  0.00    +0.126 A 
ATOM     21  C   UNL     1       9.626  15.256  -2.392  0.00  0.00    +0.047 C 
ENDBRANCH  13  20
ENDBRANCH  12  13
ENDBRANCH   9  12
ENDBRANCH   8   9
ENDBRANCH   1   8
BRANCH   4  22
ATOM     22  C   UNL     1       4.088   6.295  -1.446  0.00  0.00    -0.059 C 
BRANCH  22  23
ATOM     23  C   UNL     1       3.662   6.029  -0.001  0.00  0.00    +0.098 C 
BRANCH  23  24
ATOM     24  N   UNL     1       2.400   5.285   0.007  0.00  0.00    -0.236 N 
ATOM     25  C   UNL     1       2.441   3.939  -0.000  0.00  0.00    +0.254 C 
ATOM     26  O   UNL     1       3.514   3.366  -0.013  0.00  0.00    -0.270 OA
ATOM     27  C   UNL     1       1.196   3.157   0.008  0.00  0.00    +0.046 A 
ATOM     28  C   UNL     1       1.191   1.770   0.000  0.00  0.00    +0.014 A 
ATOM     29  C   UNL     1      -0.013   1.076   0.008  0.00  0.00    +0.001 A 
ATOM     30  C   UNL     1      -1.213   1.726   0.017  0.00  0.00    +0.008 A 
ATOM     31  C   UNL     1      -1.253   3.131   0.030  0.00  0.00    -0.016 A 
ATOM     32  C   UNL     1      -0.038   3.847   0.023  0.00  0.00    +0.006 A 
ATOM     33  C   UNL     1      -0.044   5.261   0.030  0.00  0.00    +0.046 A 
ATOM     34  C   UNL     1      -1.260   5.928   0.044  0.00  0.00    +0.014 A 
ATOM     35  C   UNL     1      -2.450   5.211   0.051  0.00  0.00    +0.001 A 
ATOM     36  C   UNL     1      -2.463   3.846   0.044  0.00  0.00    +0.008 A 
ATOM     37  C   UNL     1       1.242   5.972   0.022  0.00  0.00    +0.254 C 
ATOM     38  O   UNL     1       1.261   7.188   0.029  0.00  0.00    -0.270 OA
ENDBRANCH  23  24
ENDBRANCH  22  23
ENDBRANCH   4  22
TORSDOF 9
