REMARK  Name = ZINC59094844
REMARK  13 active torsions:
REMARK  status: ('A' for Active; 'I' for Inactive)
REMARK    1  A    between atoms: C_1  and  C_2
REMARK    2  A    between atoms: C_5  and  N_9
REMARK    3  A    between atoms: C_6  and  C_8
REMARK    4  A    between atoms: N_9  and  C_10
REMARK    5  A    between atoms: C_10  and  N_12
REMARK    6  A    between atoms: N_12  and  C_13
REMARK    7  A    between atoms: N_12  and  C_20
REMARK    8  A    between atoms: C_13  and  C_14
REMARK    9  A    between atoms: C_17  and  C_19
REMARK   10  A    between atoms: C_22  and  C_28
REMARK   11  A    between atoms: C_22  and  C_29
REMARK   12  A    between atoms: C_24  and  C_26
REMARK   13  A    between atoms: C_24  and  C_27
REMARK                            x       y       z     vdW  Elec       q    Type
REMARK                         _______ _______ _______ _____ _____    ______ ____
ROOT
ATOM      1  N   UNL     1      -0.470  -6.179  -1.110  0.00  0.00    -0.302 N 
ENDROOT
BRANCH   1   2
ATOM      2  C   UNL     1      -0.601  -6.888   0.169  0.00  0.00    +0.073 C 
ATOM      3  C   UNL     1      -1.704  -6.227   0.999  0.00  0.00    +0.009 C 
ATOM      4  C   UNL     1      -1.844  -6.947   2.340  0.00  0.00    -0.072 C 
ATOM      5  N   UNL     1      -0.579  -7.026   3.055  0.00  0.00    +0.386 N 
ATOM      6  C   UNL     1       0.594  -7.450   2.307  0.00  0.00    -0.072 C 
ATOM      7  C   UNL     1       0.712  -6.779   0.943  0.00  0.00    +0.009 C 
ATOM      8  C   UNL     1       1.840  -7.041   3.129  0.00  0.00    -0.010 C 
ATOM      9  C   UNL     1       0.644  -8.971   2.147  0.00  0.00    -0.010 C 
ATOM     10  C   UNL     1      -2.478  -8.323   2.137  0.00  0.00    -0.010 C 
ATOM     11  C   UNL     1      -2.819  -6.116   3.206  0.00  0.00    -0.010 C 
ATOM     12  H   UNL     1      -0.385  -6.109   3.466  0.00  0.00    -0.084 HD
ATOM     13  H   UNL     1      -0.700  -7.657   3.851  0.00  0.00    -0.084 HD
ENDBRANCH   1   2
BRANCH   1  14
ATOM     14  C   UNL     1      -0.273  -4.846  -1.125  0.00  0.00    +0.138 C 
ATOM     15  S   UNL     1      -0.237  -4.003  -2.614  0.00  0.00    -0.018 S 
BRANCH  14  16
ATOM     16  N   UNL     1      -0.103  -4.177   0.033  0.00  0.00    -0.297 N 
ATOM     17  H   UNL     1      -0.052  -4.663   0.871  0.00  0.00    +0.154 HD
BRANCH  16  22
ATOM     18  C   UNL     1       0.308   1.480   0.005  0.00  0.00    +0.044 C 
ATOM     19  C   UNL     1       0.199  -0.023   0.013  0.00  0.00    -0.050 A 
ATOM     20  C   UNL     1       0.958  -0.774  -0.867  0.00  0.00    +0.005 A 
ATOM     21  C   UNL     1       0.860  -2.151  -0.862  0.00  0.00    +0.024 A 
ATOM     22  C   UNL     1      -0.002  -2.782   0.026  0.00  0.00    +0.036 A 
ATOM     23  C   UNL     1      -0.762  -2.025   0.907  0.00  0.00    -0.029 A 
ATOM     24  C   UNL     1      -0.655  -0.648   0.902  0.00  0.00    +0.008 A 
ATOM     25  C   UNL     1      -1.698  -2.705   1.873  0.00  0.00    +0.045 C 
ENDBRANCH  16  22
ENDBRANCH  14  16
ENDBRANCH   1  14
BRANCH   1  26
ATOM     26  C   UNL     1      -0.553  -6.921  -2.371  0.00  0.00    +0.181 C 
BRANCH  26  27
ATOM     27  C   UNL     1       0.823  -7.384  -2.774  0.00  0.00    +0.122 A 
ATOM     28  C   UNL     1       1.391  -8.554  -2.433  0.00  0.00    +0.046 A 
ATOM     29  C   UNL     1       2.676  -8.573  -3.022  0.00  0.00    +0.045 A 
ATOM     30  C   UNL     1       2.817  -7.413  -3.688  0.00  0.00    +0.102 A 
ATOM     31  O   UNL     1       1.689  -6.699  -3.539  0.00  0.00    -0.463 OA
ATOM     32  C   UNL     1       4.031  -6.989  -4.473  0.00  0.00    +0.086 C 
ENDBRANCH  26  27
ENDBRANCH   1  26
TORSDOF 6
