REMARK  Name = ZINC67490173
REMARK  5 active torsions:
REMARK  status: ('A' for Active; 'I' for Inactive)
REMARK    1  A    between atoms: C_1  and  C_2
REMARK    2  A    between atoms: C_7  and  C_8
REMARK    3  A    between atoms: C_8  and  C_9
REMARK    4  A    between atoms: C_9  and  C_25
REMARK    5  A    between atoms: C_25  and  O_26
REMARK                            x       y       z     vdW  Elec       q    Type
REMARK                         _______ _______ _______ _____ _____    ______ ____
ROOT
ATOM      1  C   UNL     1      -1.544   0.182   2.752  0.00  0.00    +0.014 C 
ATOM      2  C   UNL     1      -1.650   0.843   4.128  0.00  0.00    +0.012 C 
ATOM      3  C   UNL     1      -3.095   0.761   4.625  0.00  0.00    +0.020 C 
ATOM      4  C   UNL     1      -4.008   1.516   3.654  0.00  0.00    +0.106 C 
ATOM      5  N   UNL     1      -3.804   0.983   2.301  0.00  0.00    -0.313 N 
ATOM      6  C   UNL     1      -2.439   0.931   1.760  0.00  0.00    +0.116 C 
ATOM      7  C   UNL     1      -4.880   0.536   1.548  0.00  0.00    +0.140 A 
ATOM      8  C   UNL     1      -6.191   0.754   2.006  0.00  0.00    +0.155 A 
ATOM      9  N   UNL     1      -7.220   0.339   1.308  0.00  0.00    -0.250 NA
ATOM     10  C   UNL     1      -7.024  -0.299   0.147  0.00  0.00    +0.089 A 
ATOM     11  C   UNL     1      -8.110  -0.754  -0.620  0.00  0.00    +0.030 A 
ATOM     12  C   UNL     1      -7.882  -1.400  -1.797  0.00  0.00    +0.002 A 
ATOM     13  C   UNL     1      -6.584  -1.619  -2.254  0.00  0.00    +0.002 A 
ATOM     14  C   UNL     1      -5.508  -1.193  -1.537  0.00  0.00    +0.030 A 
ATOM     15  C   UNL     1      -5.705  -0.522  -0.318  0.00  0.00    +0.091 A 
ATOM     16  N   UNL     1      -4.665  -0.087   0.405  0.00  0.00    -0.229 NA
ENDROOT
BRANCH   1  17
ATOM     17  C   UNL     1      -0.092   0.236   2.271  0.00  0.00    +0.046 C 
BRANCH  17  24
ATOM     18  C   UNL     1       0.809  -2.471   1.812  0.00  0.00    +0.044 C 
ATOM     19  C   UNL     1       0.423  -1.598   0.647  0.00  0.00    -0.047 A 
ATOM     20  C   UNL     1       0.494  -2.094  -0.642  0.00  0.00    +0.003 A 
ATOM     21  C   UNL     1       0.139  -1.293  -1.711  0.00  0.00    +0.000 A 
ATOM     22  C   UNL     1      -0.287   0.004  -1.492  0.00  0.00    +0.000 A 
ATOM     23  C   UNL     1      -0.359   0.499  -0.204  0.00  0.00    +0.004 A 
ATOM     24  C   UNL     1      -0.009  -0.303   0.866  0.00  0.00    -0.044 A 
ENDBRANCH  17  24
ENDBRANCH   1  17
BRANCH   1  25
ATOM     25  C   UNL     1      -1.996  -1.276   2.848  0.00  0.00    +0.164 C 
BRANCH  25  26
ATOM     26  O   UNL     1      -1.898  -1.891   1.562  0.00  0.00    -0.394 OA
ATOM     27  H   UNL     1      -2.170  -2.819   1.548  0.00  0.00    +0.209 HD
ENDBRANCH  25  26
ENDBRANCH   1  25
TORSDOF 4
