REMARK  Name = ZINC16677549
REMARK  8 active torsions:
REMARK  status: ('A' for Active; 'I' for Inactive)
REMARK    1  A    between atoms: C_4  and  C_7
REMARK    2  A    between atoms: C_7  and  C_8
REMARK    3  A    between atoms: C_8  and  N_9
REMARK    4  A    between atoms: N_17  and  N_18
REMARK    5  A    between atoms: C_19  and  C_21
REMARK    6  A    between atoms: C_21  and  N_28
REMARK    7  A    between atoms: C_22  and  C_23
REMARK    8  A    between atoms: C_29  and  C_31
REMARK                            x       y       z     vdW  Elec       q    Type
REMARK                         _______ _______ _______ _____ _____    ______ ____
ROOT
ATOM      1  N   UNL     1       9.786  -3.062   1.451  0.00  0.00    -0.201 N 
ATOM      2  C   UNL     1      11.121  -2.887   1.508  0.00  0.00    +0.277 C 
ATOM      3  O   UNL     1      11.586  -1.764   1.578  0.00  0.00    -0.267 OA
ATOM      4  H   UNL     1       9.413  -3.957   1.469  0.00  0.00    +0.178 HD
ENDROOT
BRANCH   1  13
ATOM      5  N   UNL     1       5.400  -1.671   1.487  0.00  0.00    -0.265 N 
ATOM      6  C   UNL     1       5.529  -3.055   1.460  0.00  0.00    +0.046 A 
ATOM      7  C   UNL     1       4.580  -4.072   1.475  0.00  0.00    +0.024 A 
ATOM      8  C   UNL     1       4.980  -5.393   1.441  0.00  0.00    +0.002 A 
ATOM      9  C   UNL     1       6.324  -5.722   1.391  0.00  0.00    +0.001 A 
ATOM     10  C   UNL     1       7.280  -4.726   1.376  0.00  0.00    +0.012 A 
ATOM     11  C   UNL     1       6.888  -3.393   1.410  0.00  0.00    +0.028 A 
ATOM     12  C   UNL     1       7.636  -2.114   1.406  0.00  0.00    +0.153 C 
ATOM     13  N   UNL     1       8.937  -1.951   1.365  0.00  0.00    -0.174 NA
ATOM     14  C   UNL     1       6.599  -1.065   1.452  0.00  0.00    +0.271 C 
ATOM     15  O   UNL     1       6.796   0.136   1.460  0.00  0.00    -0.268 OA
BRANCH   5  16
ATOM     16  C   UNL     1       4.119  -0.962   1.540  0.00  0.00    +0.118 C 
BRANCH  16  17
ATOM     17  C   UNL     1       3.623  -0.698   0.117  0.00  0.00    +0.054 C 
BRANCH  17  21
ATOM     18  C   UNL     1      -0.113   1.368   0.269  0.00  0.00    +0.000 A 
ATOM     19  C   UNL     1       1.071   2.081   0.238  0.00  0.00    +0.000 A 
ATOM     20  C   UNL     1       2.280   1.413   0.189  0.00  0.00    +0.004 A 
ATOM     21  C   UNL     1       2.305   0.031   0.172  0.00  0.00    -0.046 A 
ATOM     22  C   UNL     1       1.122  -0.683   0.203  0.00  0.00    +0.004 A 
ATOM     23  C   UNL     1      -0.087  -0.014   0.251  0.00  0.00    +0.000 A 
ENDBRANCH  17  21
ENDBRANCH  16  17
ENDBRANCH   5  16
ENDBRANCH   1  13
BRANCH   2  24
ATOM     24  C   UNL     1      12.012  -4.046   1.485  0.00  0.00    +0.099 C 
ATOM     25  C   UNL     1      12.442  -4.597   2.654  0.00  0.00    +0.043 C 
BRANCH  25  26
ATOM     26  C   UNL     1      11.937  -4.123   3.888  0.00  0.00    +0.014 A 
ATOM     27  C   UNL     1      12.316  -4.467   5.181  0.00  0.00    +0.015 A 
ATOM     28  C   UNL     1      11.634  -3.830   6.190  0.00  0.00    +0.008 A 
ATOM     29  C   UNL     1      10.667  -2.936   5.870  0.00  0.00    +0.046 A 
ATOM     30  S   UNL     1      10.653  -2.924   4.190  0.00  0.00    -0.097 S 
ENDBRANCH  25  26
BRANCH  24  31
ATOM     31  N   UNL     1      12.423  -4.590   0.262  0.00  0.00    -0.277 N 
ATOM     32  C   UNL     1      12.090  -3.979  -0.892  0.00  0.00    +0.248 C 
ATOM     33  O   UNL     1      11.524  -2.904  -0.870  0.00  0.00    -0.270 OA
ATOM     34  H   UNL     1      12.947  -5.406   0.245  0.00  0.00    +0.155 HD
BRANCH  32  35
ATOM     35  C   UNL     1      12.415  -4.616  -2.186  0.00  0.00    +0.037 A 
ATOM     36  C   UNL     1      13.060  -5.854  -2.216  0.00  0.00    +0.013 A 
ATOM     37  C   UNL     1      13.360  -6.444  -3.426  0.00  0.00    +0.001 A 
ATOM     38  C   UNL     1      13.022  -5.811  -4.609  0.00  0.00    +0.000 A 
ATOM     39  C   UNL     1      12.382  -4.584  -4.587  0.00  0.00    +0.001 A 
ATOM     40  C   UNL     1      12.072  -3.986  -3.384  0.00  0.00    +0.013 A 
ENDBRANCH  32  35
ENDBRANCH  24  31
ENDBRANCH   2  24
TORSDOF 8
