REMARK  Name = ZINC57455623
REMARK  10 active torsions:
REMARK  status: ('A' for Active; 'I' for Inactive)
REMARK    1  A    between atoms: C_1  and  C_2
REMARK    2  A    between atoms: C_2  and  C_3
REMARK    3  A    between atoms: C_3  and  C_5
REMARK    4  A    between atoms: C_3  and  C_6
REMARK    5  A    between atoms: C_6  and  C_8
REMARK    6  A    between atoms: C_6  and  N_22
REMARK    7  A    between atoms: N_10  and  C_11
REMARK    8  A    between atoms: C_11  and  C_12
REMARK    9  A    between atoms: C_12  and  C_13
REMARK   10  A    between atoms: C_13  and  C_14
REMARK                            x       y       z     vdW  Elec       q    Type
REMARK                         _______ _______ _______ _____ _____    ______ ____
ROOT
ATOM      1  C   UNL     1      -1.907   1.476  -1.255  0.00  0.00    +0.234 C 
ATOM      2  O   UNL     1      -2.878   2.198  -1.323  0.00  0.00    -0.274 OA
ATOM      3  N   UNL     1      -0.668   2.007  -1.281  0.00  0.00    -0.314 N 
ATOM      4  H   UNL     1       0.108   1.427  -1.301  0.00  0.00    +0.149 HD
ENDROOT
BRANCH   1   5
ATOM      5  C   UNL     1      -2.083  -0.017  -1.141  0.00  0.00    +0.163 C 
BRANCH   5   6
ATOM      6  N   UNL     1      -3.412  -0.390  -1.631  0.00  0.00    -0.288 N 
ATOM      7  C   UNL     1      -3.632  -1.634  -2.101  0.00  0.00    +0.298 C 
ATOM      8  O   UNL     1      -2.728  -2.446  -2.118  0.00  0.00    -0.253 OA
ATOM      9  N   UNL     1      -4.855  -1.978  -2.552  0.00  0.00    -0.313 N 
ATOM     10  H   UNL     1      -4.134   0.258  -1.617  0.00  0.00    +0.151 HD
ATOM     11  H   UNL     1      -5.577  -1.329  -2.538  0.00  0.00    +0.146 HD
ATOM     12  H   UNL     1      -5.013  -2.873  -2.890  0.00  0.00    +0.146 HD
ENDBRANCH   5   6
BRANCH   5  13
ATOM     13  C   UNL     1      -1.944  -0.436   0.324  0.00  0.00    +0.015 C 
ATOM     14  C   UNL     1      -3.102   0.148   1.135  0.00  0.00    +0.010 C 
BRANCH  13  16
ATOM     15  C   UNL     1      -0.721  -2.540  -0.243  0.00  0.00    +0.004 C 
ATOM     16  C   UNL     1      -1.972  -1.963   0.422  0.00  0.00    +0.002 C 
ENDBRANCH  13  16
ENDBRANCH   5  13
ENDBRANCH   1   5
BRANCH   3  17
ATOM     17  C   UNL     1      -0.496   3.462  -1.280  0.00  0.00    +0.104 C 
BRANCH  17  18
ATOM     18  C   UNL     1       0.996   3.799  -1.313  0.00  0.00    +0.023 C 
BRANCH  18  19
ATOM     19  C   UNL     1       1.176   5.319  -1.312  0.00  0.00    +0.037 C 
BRANCH  19  20
ATOM     20  C   UNL     1       2.646   5.650  -1.344  0.00  0.00    -0.046 A 
ATOM     21  C   UNL     1       3.348   5.793  -0.162  0.00  0.00    +0.005 A 
ATOM     22  C   UNL     1       4.696   6.097  -0.191  0.00  0.00    +0.022 A 
ATOM     23  C   UNL     1       5.343   6.260  -1.403  0.00  0.00    +0.059 A 
ATOM     24  C   UNL     1       4.639   6.117  -2.586  0.00  0.00    +0.060 A 
ATOM     25  C   UNL     1       3.292   5.806  -2.556  0.00  0.00    +0.025 A 
ATOM     26 CL   UNL     1       5.450   6.321  -4.108  0.00  0.00    -0.082 Cl
ATOM     27 CL   UNL     1       7.036   6.643  -1.439  0.00  0.00    -0.082 Cl
ENDBRANCH  19  20
ENDBRANCH  18  19
ENDBRANCH  17  18
ENDBRANCH   3  17
TORSDOF 8
