REMARK  Name = ZINC28063768
REMARK  5 active torsions:
REMARK  status: ('A' for Active; 'I' for Inactive)
REMARK    1  A    between atoms: C_1  and  O_2
REMARK    2  A    between atoms: O_2  and  C_3
REMARK    3  A    between atoms: C_8  and  C_9
REMARK    4  A    between atoms: C_15  and  C_29
REMARK    5  A    between atoms: C_18  and  C_20
REMARK                            x       y       z     vdW  Elec       q    Type
REMARK                         _______ _______ _______ _____ _____    ______ ____
ROOT
ATOM      1  C   UNL     1       7.920   2.409  -0.058  0.00  0.00    +0.084 A 
ATOM      2  C   UNL     1       8.715   1.297  -0.071  0.00  0.00    +0.077 A 
ATOM      3  S   UNL     1       7.479   0.005  -0.067  0.00  0.00    -0.058 S 
ATOM      4  C   UNL     1       6.043   1.070  -0.048  0.00  0.00    +0.181 A 
ATOM      5  N   UNL     1       6.603   2.267  -0.053  0.00  0.00    -0.223 NA
ATOM      6  N   UNL     1       4.701   0.731  -0.038  0.00  0.00    -0.193 N 
ATOM      7  C   UNL     1       4.164  -0.639  -0.040  0.00  0.00    +0.136 C 
ATOM      8  C   UNL     1       2.637  -0.430  -0.025  0.00  0.00    +0.087 C 
ATOM      9  C   UNL     1       2.476   1.074  -0.015  0.00  0.00    +0.069 C 
ATOM     10  N   UNL     1       3.638   1.631  -0.029  0.00  0.00    -0.181 NA
ENDROOT
BRANCH   9  11
ATOM     11  C   UNL     1       1.188   1.791   0.000  0.00  0.00    +0.002 A 
ATOM     12  C   UNL     1      -0.013   1.076   0.008  0.00  0.00    +0.013 A 
ATOM     13  C   UNL     1      -1.216   1.749   0.017  0.00  0.00    +0.050 A 
ATOM     14  C   UNL     1      -1.240   3.136   0.031  0.00  0.00    +0.166 A 
ATOM     15  C   UNL     1      -0.046   3.856   0.023  0.00  0.00    +0.167 A 
ATOM     16  C   UNL     1       1.164   3.188   0.008  0.00  0.00    +0.059 A 
ATOM     17  O   UNL     1      -0.341   5.189   0.034  0.00  0.00    -0.453 OA
ATOM     18  C   UNL     1      -1.713   5.276   0.461  0.00  0.00    +0.466 C 
ATOM     19  O   UNL     1      -2.281   4.020   0.046  0.00  0.00    -0.453 OA
ENDBRANCH   9  11
BRANCH   7  20
ATOM     20  C   UNL     1       4.609  -1.388   1.190  0.00  0.00    -0.025 A 
ATOM     21  C   UNL     1       4.767  -0.717   2.388  0.00  0.00    +0.007 A 
ATOM     22  C   UNL     1       5.170  -1.405   3.517  0.00  0.00    +0.020 A 
ATOM     23  C   UNL     1       5.425  -2.763   3.446  0.00  0.00    +0.041 A 
ATOM     24  C   UNL     1       5.272  -3.433   2.245  0.00  0.00    +0.020 A 
ATOM     25  C   UNL     1       4.864  -2.745   1.118  0.00  0.00    +0.007 A 
ATOM     26 CL   UNL     1       5.938  -3.625   4.862  0.00  0.00    -0.084 Cl
ENDBRANCH   7  20
BRANCH   1  32
ATOM     27  C   UNL     1       7.711   4.897  -0.049  0.00  0.00    +0.129 A 
ATOM     28  C   UNL     1       8.286   6.158  -0.043  0.00  0.00    +0.046 A 
ATOM     29  C   UNL     1       9.662   6.291  -0.054  0.00  0.00    +0.004 A 
ATOM     30  C   UNL     1      10.472   5.169  -0.066  0.00  0.00    +0.001 A 
ATOM     31  C   UNL     1       9.912   3.908  -0.068  0.00  0.00    +0.013 A 
ATOM     32  C   UNL     1       8.527   3.762  -0.056  0.00  0.00    +0.043 A 
BRANCH  27  34
ATOM     33  C   UNL     1       5.589   5.969  -0.035  0.00  0.00    +0.277 C 
ATOM     34  O   UNL     1       6.359   4.765  -0.043  0.00  0.00    -0.494 OA
ENDBRANCH  27  34
ENDBRANCH   1  32
TORSDOF 4
