REMARK  Name = ZINC34999505
REMARK  12 active torsions:
REMARK  status: ('A' for Active; 'I' for Inactive)
REMARK    1  A    between atoms: C_1  and  C_2
REMARK    2  A    between atoms: C_2  and  C_37
REMARK    3  A    between atoms: C_7  and  C_11
REMARK    4  A    between atoms: C_11  and  N_12
REMARK    5  A    between atoms: N_12  and  C_13
REMARK    6  A    between atoms: C_13  and  C_14
REMARK    7  A    between atoms: C_14  and  N_15
REMARK    8  A    between atoms: N_23  and  C_24
REMARK    9  A    between atoms: C_24  and  C_25
REMARK   10  A    between atoms: C_24  and  C_26
REMARK   11  A    between atoms: C_24  and  C_27
REMARK   12  A    between atoms: C_28  and  C_30
REMARK                            x       y       z     vdW  Elec       q    Type
REMARK                         _______ _______ _______ _____ _____    ______ ____
ROOT
ATOM      1  N   UNL     1       1.536  -0.391   3.782  0.00  0.00    -0.295 N 
ATOM      2  C   UNL     1       0.958  -0.658   4.970  0.00  0.00    +0.248 C 
ATOM      3  O   UNL     1       0.441   0.237   5.609  0.00  0.00    -0.270 OA
ENDROOT
BRANCH   2   4
ATOM      4  C   UNL     1       0.954  -2.039   5.495  0.00  0.00    +0.055 A 
ATOM      5  C   UNL     1       2.038  -2.885   5.252  0.00  0.00    +0.014 A 
ATOM      6  C   UNL     1       2.028  -4.173   5.745  0.00  0.00    +0.001 A 
ATOM      7  C   UNL     1       0.948  -4.628   6.481  0.00  0.00    +0.001 A 
ATOM      8  C   UNL     1      -0.130  -3.797   6.726  0.00  0.00    +0.021 A 
ATOM      9  C   UNL     1      -0.131  -2.503   6.243  0.00  0.00    +0.053 A 
ATOM     10 CL   UNL     1      -1.480  -1.457   6.559  0.00  0.00    -0.083 Cl
ENDBRANCH   2   4
BRANCH   1  11
ATOM     11  C   UNL     1       1.407   0.943   3.188  0.00  0.00    +0.138 C 
BRANCH  11  17
ATOM     12  C   UNL     1      -0.308   2.702   0.165  0.00  0.00    +0.012 C 
ATOM     13  C   UNL     1      -0.731   1.237   0.044  0.00  0.00    -0.025 C 
ATOM     14  C   UNL     1      -2.034   0.899   0.796  0.00  0.00    -0.000 C 
ATOM     15  C   UNL     1      -2.180   1.768   2.052  0.00  0.00    +0.031 C 
ATOM     16  C   UNL     1      -0.910   1.705   2.865  0.00  0.00    -0.025 C 
ATOM     17  C   UNL     1       0.118   1.024   2.412  0.00  0.00    -0.053 C 
ATOM     18  C   UNL     1      -0.047   0.304   1.061  0.00  0.00    +0.022 C 
ATOM     19  C   UNL     1      -1.387  -0.471   1.065  0.00  0.00    +0.012 C 
ATOM     20  C   UNL     1      -0.691   0.719  -1.395  0.00  0.00    +0.012 C 
ENDBRANCH  11  17
ENDBRANCH   1  11
BRANCH   1  21
ATOM     21  C   UNL     1       2.292  -1.433   3.084  0.00  0.00    +0.090 C 
BRANCH  21  22
ATOM     22  C   UNL     1       3.789  -1.138   3.196  0.00  0.00    -0.059 C 
BRANCH  22  23
ATOM     23  N   UNL     1       4.542  -2.115   2.399  0.00  0.00    +0.383 N 
ATOM     24  C   UNL     1       4.344  -3.458   2.959  0.00  0.00    -0.059 C 
ATOM     25  C   UNL     1       5.034  -4.491   2.062  0.00  0.00    +0.091 C 
ATOM     26  N   UNL     1       6.444  -4.102   1.902  0.00  0.00    -0.289 N 
ATOM     27  C   UNL     1       6.740  -2.719   1.500  0.00  0.00    +0.091 C 
ATOM     28  C   UNL     1       5.969  -1.769   2.423  0.00  0.00    -0.059 C 
ATOM     29  C   UNL     1       7.436  -4.988   2.118  0.00  0.00    +0.302 C 
ATOM     30  O   UNL     1       7.172  -6.150   2.360  0.00  0.00    -0.253 OA
ATOM     31  N   UNL     1       8.722  -4.586   2.066  0.00  0.00    -0.295 N 
ATOM     32  H   UNL     1       8.932  -3.647   1.946  0.00  0.00    +0.151 HD
ATOM     33  H   UNL     1       4.209  -2.098   1.446  0.00  0.00    -0.082 HD
BRANCH  31  34
ATOM     34  C   UNL     1       9.802  -5.568   2.192  0.00  0.00    +0.028 C 
ATOM     35  C   UNL     1       9.690  -6.596   1.064  0.00  0.00    +0.031 C 
ATOM     36  C   UNL     1      11.152  -4.855   2.100  0.00  0.00    +0.031 C 
ATOM     37  C   UNL     1       9.691  -6.279   3.542  0.00  0.00    +0.031 C 
ENDBRANCH  31  34
ENDBRANCH  22  23
ENDBRANCH  21  22
ENDBRANCH   1  21
TORSDOF 7
