REMARK  Name = ZINC13156480
REMARK  14 active torsions:
REMARK  status: ('A' for Active; 'I' for Inactive)
REMARK    1  A    between atoms: C_1  and  C_2
REMARK    2  A    between atoms: C_2  and  C_3
REMARK    3  A    between atoms: C_3  and  C_4
REMARK    4  A    between atoms: C_4  and  C_5
REMARK    5  A    between atoms: C_5  and  C_6
REMARK    6  A    between atoms: C_6  and  N_7
REMARK    7  A    between atoms: C_16  and  S_17
REMARK    8  A    between atoms: S_17  and  C_18
REMARK    9  A    between atoms: C_18  and  C_20
REMARK   10  A    between atoms: C_18  and  C_21
REMARK   11  A    between atoms: N_23  and  C_24
REMARK   12  A    between atoms: C_25  and  C_31
REMARK   13  A    between atoms: N_27  and  C_30
REMARK   14  A    between atoms: C_28  and  C_29
REMARK                            x       y       z     vdW  Elec       q    Type
REMARK                         _______ _______ _______ _____ _____    ______ ____
ROOT
ATOM      1  N   UNL     1       0.641   0.621  -1.510  0.00  0.00    -0.287 N 
ATOM      2  C   UNL     1       1.592   1.530  -1.225  0.00  0.00    +0.263 A 
ATOM      3  O   UNL     1       1.713   2.534  -1.906  0.00  0.00    -0.267 OA
ATOM      4  C   UNL     1       2.459   1.298  -0.111  0.00  0.00    +0.076 A 
ATOM      5  C   UNL     1       3.557   2.151   0.374  0.00  0.00    -0.023 A 
ATOM      6  C   UNL     1       4.232   1.717   1.451  0.00  0.00    -0.004 A 
ATOM      7  S   UNL     1       3.469   0.170   1.880  0.00  0.00    -0.073 S 
ATOM      8  C   UNL     1       2.238   0.114   0.606  0.00  0.00    +0.117 A 
ATOM      9  N   UNL     1       1.280  -0.745   0.273  0.00  0.00    -0.216 NA
ATOM     10  C   UNL     1       0.493  -0.509  -0.758  0.00  0.00    +0.173 A 
ATOM     11  C   UNL     1       5.325   2.669   1.858  0.00  0.00    +0.043 C 
ATOM     12  C   UNL     1       4.973   3.992   1.142  0.00  0.00    +0.010 C 
ATOM     13  C   UNL     1       4.161   3.487  -0.067  0.00  0.00    +0.037 C 
ENDROOT
BRANCH   1  14
ATOM     14  C   UNL     1      -0.249   0.845  -2.652  0.00  0.00    +0.127 C 
BRANCH  14  15
ATOM     15  C   UNL     1      -1.486   1.617  -2.190  0.00  0.00    +0.022 C 
BRANCH  15  16
ATOM     16  C   UNL     1      -2.416   1.851  -3.383  0.00  0.00    +0.002 C 
BRANCH  16  17
ATOM     17  C   UNL     1      -3.654   2.623  -2.921  0.00  0.00    -0.000 C 
BRANCH  17  19
ATOM     18  C   UNL     1      -5.821   3.629  -3.652  0.00  0.00    +0.004 C 
ATOM     19  C   UNL     1      -4.583   2.857  -4.114  0.00  0.00    -0.003 C 
ENDBRANCH  17  19
ENDBRANCH  16  17
ENDBRANCH  15  16
ENDBRANCH  14  15
ENDBRANCH   1  14
BRANCH  10  20
ATOM     20  S   UNL     1      -0.767  -1.669  -1.172  0.00  0.00    -0.075 S 
BRANCH  20  21
ATOM     21  C   UNL     1      -0.491  -2.906   0.120  0.00  0.00    +0.137 C 
ATOM     22  C   UNL     1       0.882  -3.551  -0.076  0.00  0.00    +0.029 C 
BRANCH  21  23
ATOM     23  C   UNL     1      -1.560  -3.966   0.037  0.00  0.00    +0.230 C 
ATOM     24  O   UNL     1      -2.128  -4.173  -1.014  0.00  0.00    -0.274 OA
ATOM     25  N   UNL     1      -1.884  -4.683   1.131  0.00  0.00    -0.282 N 
ATOM     26  H   UNL     1      -1.381  -4.568   1.953  0.00  0.00    +0.155 HD
BRANCH  25  27
ATOM     27  C   UNL     1      -2.951  -5.600   1.081  0.00  0.00    +0.077 A 
ATOM     28  C   UNL     1      -4.286  -5.297   0.777  0.00  0.00    +0.081 A 
ATOM     29  N   UNL     1      -4.981  -6.404   0.829  0.00  0.00    -0.175 NA
ATOM     30  N   UNL     1      -4.117  -7.453   1.166  0.00  0.00    -0.270 N 
ATOM     31  C   UNL     1      -2.869  -6.935   1.311  0.00  0.00    +0.057 A 
ATOM     32  C   UNL     1      -1.623  -7.703   1.668  0.00  0.00    +0.067 C 
ATOM     33  C   UNL     1      -4.490  -8.860   1.328  0.00  0.00    +0.172 C 
ATOM     34  C   UNL     1      -4.828  -3.929   0.449  0.00  0.00    +0.069 C 
ENDBRANCH  25  27
ENDBRANCH  21  23
ENDBRANCH  20  21
ENDBRANCH  10  20
TORSDOF 9
