REMARK  Name = ZINC16133965
REMARK  10 active torsions:
REMARK  status: ('A' for Active; 'I' for Inactive)
REMARK    1  A    between atoms: C_1  and  C_2
REMARK    2  A    between atoms: C_3  and  C_7
REMARK    3  A    between atoms: N_8  and  C_9
REMARK    4  A    between atoms: C_10  and  O_33
REMARK    5  A    between atoms: C_13  and  S_15
REMARK    6  A    between atoms: S_15  and  C_18
REMARK    7  A    between atoms: C_20  and  N_25
REMARK    8  A    between atoms: C_21  and  O_24
REMARK    9  A    between atoms: C_26  and  C_27
REMARK   10  A    between atoms: C_31  and  C_32
REMARK                            x       y       z     vdW  Elec       q    Type
REMARK                         _______ _______ _______ _____ _____    ______ ____
ROOT
ATOM      1  S   UNL     1       1.696   2.273  -6.933  0.00  0.00    +0.025 S 
ATOM      2  O   UNL     1       2.752   2.370  -5.986  0.00  0.00    -0.164 OA
ATOM      3  O   UNL     1       1.934   2.160  -8.329  0.00  0.00    -0.164 OA
ENDROOT
BRANCH   1   8
ATOM      4  C   UNL     1      -0.013  -0.683  -4.798  0.00  0.00    +0.107 A 
ATOM      5  C   UNL     1      -0.792  -1.338  -5.762  0.00  0.00    +0.142 A 
ATOM      6  C   UNL     1      -0.798  -0.878  -7.068  0.00  0.00    +0.049 A 
ATOM      7  C   UNL     1      -0.038   0.223  -7.419  0.00  0.00    +0.031 A 
ATOM      8  C   UNL     1       0.733   0.872  -6.471  0.00  0.00    +0.096 A 
ATOM      9  C   UNL     1       0.746   0.430  -5.163  0.00  0.00    +0.058 A 
BRANCH   4  11
ATOM     10  C   UNL     1      -0.007  -0.274  -2.518  0.00  0.00    +0.126 C 
ATOM     11  N   UNL     1      -0.000  -1.130  -3.506  0.00  0.00    -0.251 NA
BRANCH  10  14
ATOM     12  C   UNL     1      -0.018   1.503   0.010  0.00  0.00    +0.045 C 
ATOM     13  C   UNL     1       0.002  -0.004   0.002  0.00  0.00    -0.035 A 
ATOM     14  C   UNL     1       0.006  -0.737  -1.177  0.00  0.00    +0.033 A 
ATOM     15  S   UNL     1       0.032  -2.412  -0.568  0.00  0.00    -0.095 S 
ATOM     16  C   UNL     1       0.036  -2.095   1.082  0.00  0.00    +0.046 A 
ATOM     17  C   UNL     1       0.024  -0.742   1.162  0.00  0.00    +0.011 A 
ENDBRANCH  10  14
ENDBRANCH   4  11
BRANCH   5  18
ATOM     18  O   UNL     1      -1.538  -2.420  -5.417  0.00  0.00    -0.505 OA
ATOM     19  H   UNL     1      -2.435  -2.203  -5.127  0.00  0.00    +0.292 HD
ENDBRANCH   5  18
ENDBRANCH   1   8
BRANCH   1  20
ATOM     20  C   UNL     1       0.685   3.698  -6.707  0.00  0.00    +0.096 A 
ATOM     21  C   UNL     1      -0.106   4.150  -7.744  0.00  0.00    +0.058 A 
ATOM     22  C   UNL     1      -0.908   5.279  -7.566  0.00  0.00    +0.107 A 
ATOM     23  C   UNL     1      -0.902   5.946  -6.333  0.00  0.00    +0.142 A 
ATOM     24  C   UNL     1      -0.102   5.480  -5.304  0.00  0.00    +0.049 A 
ATOM     25  C   UNL     1       0.683   4.357  -5.491  0.00  0.00    +0.031 A 
BRANCH  23  26
ATOM     26  O   UNL     1      -1.678   7.047  -6.149  0.00  0.00    -0.505 OA
ATOM     27  H   UNL     1      -2.564   6.851  -5.815  0.00  0.00    +0.292 HD
ENDBRANCH  23  26
BRANCH  22  28
ATOM     28  N   UNL     1      -1.694   5.732  -8.589  0.00  0.00    -0.251 NA
ATOM     29  C   UNL     1      -2.329   4.880  -9.352  0.00  0.00    +0.126 C 
BRANCH  29  30
ATOM     30  C   UNL     1      -3.145   5.350 -10.413  0.00  0.00    +0.033 A 
ATOM     31  S   UNL     1      -3.468   7.027 -10.924  0.00  0.00    -0.095 S 
ATOM     32  C   UNL     1      -4.501   6.719 -12.213  0.00  0.00    +0.046 A 
ATOM     33  C   UNL     1      -4.594   5.367 -12.249  0.00  0.00    +0.011 A 
ATOM     34  C   UNL     1      -3.895   4.623 -11.328  0.00  0.00    -0.035 A 
ATOM     35  C   UNL     1      -3.942   3.117 -11.311  0.00  0.00    +0.045 C 
ENDBRANCH  29  30
ENDBRANCH  22  28
ENDBRANCH   1  20
TORSDOF 8
