REMARK  Name = ZINC63361915
REMARK  6 active torsions:
REMARK  status: ('A' for Active; 'I' for Inactive)
REMARK    1  A    between atoms: C_1  and  C_2
REMARK    2  A    between atoms: N_18  and  C_21
REMARK    3  A    between atoms: C_26  and  C_27
REMARK    4  A    between atoms: N_29  and  C_30
REMARK    5  A    between atoms: C_30  and  C_31
REMARK    6  A    between atoms: C_31  and  C_32
REMARK                            x       y       z     vdW  Elec       q    Type
REMARK                         _______ _______ _______ _____ _____    ______ ____
ROOT
ATOM      1  C   UNL     1      -0.019   1.526   0.010  0.00  0.00    +0.044 C 
ATOM      2  C   UNL     1       0.002  -0.004   0.002  0.00  0.00    +0.137 C 
ATOM      3  C   UNL     1       0.719  -0.543  -1.236  0.00  0.00    +0.139 C 
ATOM      4  C   UNL     1       1.839  -1.452  -0.749  0.00  0.00    -0.034 C 
ATOM      5  C   UNL     1       1.637  -2.633  -1.327  0.00  0.00    -0.001 A 
ATOM      6  C   UNL     1       2.414  -3.883  -1.292  0.00  0.00    +0.010 A 
ATOM      7  C   UNL     1       1.905  -4.924  -2.003  0.00  0.00    +0.001 A 
ATOM      8  C   UNL     1       0.716  -4.847  -2.735  0.00  0.00    +0.002 A 
ATOM      9  C   UNL     1      -0.060  -3.737  -2.826  0.00  0.00    +0.026 A 
ATOM     10  C   UNL     1       0.375  -2.575  -2.125  0.00  0.00    +0.043 A 
ATOM     11  N   UNL     1      -0.163  -1.376  -2.056  0.00  0.00    -0.375 N 
ATOM     12  C   UNL     1       2.883  -1.028   0.254  0.00  0.00    +0.052 C 
ATOM     13  C   UNL     1       2.130  -0.431   1.460  0.00  0.00    +0.115 C 
ATOM     14  N   UNL     1       0.694  -0.542   1.192  0.00  0.00    -0.268 N 
ATOM     15  C   UNL     1      -0.238  -1.157   1.933  0.00  0.00    +0.317 C 
ATOM     16  O   UNL     1      -0.032  -1.613   3.040  0.00  0.00    -0.252 OA
ATOM     17  N   UNL     1      -1.425  -1.211   1.312  0.00  0.00    -0.192 N 
ATOM     18  C   UNL     1      -1.393  -0.576   0.122  0.00  0.00    +0.253 C 
ATOM     19  O   UNL     1      -2.295  -0.483  -0.682  0.00  0.00    -0.272 OA
ATOM     20  H   UNL     1      -0.994  -1.089  -2.467  0.00  0.00    +0.160 HD
ENDROOT
BRANCH  17  21
ATOM     21  C   UNL     1      -2.555  -1.845   1.833  0.00  0.00    +0.058 A 
ATOM     22  C   UNL     1      -3.449  -1.139   2.624  0.00  0.00    +0.025 A 
ATOM     23  C   UNL     1      -4.565  -1.768   3.138  0.00  0.00    +0.002 A 
ATOM     24  C   UNL     1      -4.802  -3.106   2.869  0.00  0.00    +0.001 A 
ATOM     25  C   UNL     1      -3.924  -3.824   2.085  0.00  0.00    +0.015 A 
ATOM     26  C   UNL     1      -2.794  -3.199   1.554  0.00  0.00    +0.059 A 
BRANCH  26  27
ATOM     27  C   UNL     1      -1.853  -3.959   0.709  0.00  0.00    +0.246 C 
ATOM     28  O   UNL     1      -0.867  -3.413   0.253  0.00  0.00    -0.270 OA
ATOM     29  N   UNL     1      -2.087  -5.260   0.443  0.00  0.00    -0.311 N 
ATOM     30  H   UNL     1      -2.873  -5.696   0.807  0.00  0.00    +0.149 HD
BRANCH  29  31
ATOM     31  C   UNL     1      -1.153  -6.015  -0.396  0.00  0.00    +0.109 C 
BRANCH  31  32
ATOM     32  C   UNL     1      -1.647  -7.456  -0.540  0.00  0.00    +0.054 C 
BRANCH  32  33
ATOM     33  C   UNL     1      -0.687  -8.233  -1.403  0.00  0.00    -0.046 A 
ATOM     34  C   UNL     1      -0.866  -8.274  -2.773  0.00  0.00    +0.004 A 
ATOM     35  C   UNL     1       0.015  -8.986  -3.564  0.00  0.00    +0.000 A 
ATOM     36  C   UNL     1       1.076  -9.658  -2.986  0.00  0.00    +0.000 A 
ATOM     37  C   UNL     1       1.256  -9.617  -1.616  0.00  0.00    +0.000 A 
ATOM     38  C   UNL     1       0.377  -8.900  -0.825  0.00  0.00    +0.004 A 
ENDBRANCH  32  33
ENDBRANCH  31  32
ENDBRANCH  29  31
ENDBRANCH  26  27
ENDBRANCH  17  21
TORSDOF 5
