REMARK  Name = ZINC06768613
REMARK  6 active torsions:
REMARK  status: ('A' for Active; 'I' for Inactive)
REMARK    1  A    between atoms: C_1  and  C_2
REMARK    2  A    between atoms: C_7  and  N_8
REMARK    3  A    between atoms: N_11  and  C_12
REMARK    4  A    between atoms: C_12  and  C_14
REMARK    5  A    between atoms: C_12  and  C_15
REMARK    6  A    between atoms: C_19  and  N_20
REMARK                            x       y       z     vdW  Elec       q    Type
REMARK                         _______ _______ _______ _____ _____    ______ ____
ROOT
ATOM      1  C   UNL     1      -3.732   3.517   0.036  0.00  0.00    +0.104 C 
ATOM      2  C   UNL     1      -3.428   4.017   1.449  0.00  0.00    +0.033 C 
ENDROOT
BRANCH   1   3
ATOM      3  C   UNL     1      -3.596   2.016  -0.006  0.00  0.00    +0.007 A 
ATOM      4  C   UNL     1      -4.733   1.214  -0.096  0.00  0.00    -0.030 A 
ATOM      5  C   UNL     1      -4.529  -0.131  -0.120  0.00  0.00    -0.005 A 
ATOM      6  S   UNL     1      -2.767  -0.296  -0.028  0.00  0.00    -0.075 S 
ATOM      7  C   UNL     1      -2.365   1.443   0.041  0.00  0.00    +0.090 A 
ATOM      8  C   UNL     1      -5.563  -1.208  -0.204  0.00  0.00    +0.043 C 
ATOM      9  C   UNL     1      -6.933  -0.587   0.109  0.00  0.00    +0.005 C 
ATOM     10  C   UNL     1      -7.087   0.701  -0.705  0.00  0.00    +0.005 C 
ATOM     11  C   UNL     1      -6.149   1.779  -0.160  0.00  0.00    +0.036 C 
BRANCH   7  12
ATOM     12  N   UNL     1      -1.109   2.055   0.127  0.00  0.00    -0.317 N 
ATOM     13  C   UNL     1       0.095   1.422   0.011  0.00  0.00    +0.092 A 
ATOM     14  C   UNL     1       1.071   2.344   0.145  0.00  0.00    +0.019 A 
ATOM     15  C   UNL     1       0.448   3.591   0.355  0.00  0.00    +0.019 A 
ATOM     16  C   UNL     1      -0.885   3.385   0.343  0.00  0.00    +0.092 A 
ENDBRANCH   7  12
ENDBRANCH   1   3
BRANCH   1  20
ATOM     17  N   UNL     1      -2.009   5.984  -2.076  0.00  0.00    -0.269 N 
ATOM     18  C   UNL     1      -2.877   5.430  -1.207  0.00  0.00    +0.304 C 
ATOM     19  O   UNL     1      -3.740   6.114  -0.691  0.00  0.00    -0.252 OA
ATOM     20  N   UNL     1      -2.788   4.119  -0.909  0.00  0.00    -0.292 N 
ATOM     21  H   UNL     1      -1.256   5.468  -2.405  0.00  0.00    +0.156 HD
ATOM     22  H   UNL     1      -2.099   3.574  -1.321  0.00  0.00    +0.151 HD
BRANCH  17  29
ATOM     23  C   UNL     1       0.211   7.349  -3.220  0.00  0.00    +0.045 C 
ATOM     24  C   UNL     1      -1.136   8.007  -3.067  0.00  0.00    -0.029 A 
ATOM     25  C   UNL     1      -1.321   9.309  -3.489  0.00  0.00    +0.005 A 
ATOM     26  C   UNL     1      -2.557   9.913  -3.350  0.00  0.00    +0.000 A 
ATOM     27  C   UNL     1      -3.612   9.216  -2.789  0.00  0.00    +0.002 A 
ATOM     28  C   UNL     1      -3.434   7.912  -2.370  0.00  0.00    +0.023 A 
ATOM     29  C   UNL     1      -2.193   7.304  -2.503  0.00  0.00    +0.038 A 
ENDBRANCH  17  29
ENDBRANCH   1  20
TORSDOF 4
