REMARK  Name = ZINC05008892
REMARK  7 active torsions:
REMARK  status: ('A' for Active; 'I' for Inactive)
REMARK    1  A    between atoms: C_1  and  O_2
REMARK    2  A    between atoms: O_2  and  C_3
REMARK    3  A    between atoms: C_6  and  C_10
REMARK    4  A    between atoms: C_8  and  O_9
REMARK    5  A    between atoms: C_11  and  C_12
REMARK    6  A    between atoms: C_11  and  C_14
REMARK    7  A    between atoms: C_16  and  C_19
REMARK                            x       y       z     vdW  Elec       q    Type
REMARK                         _______ _______ _______ _____ _____    ______ ____
ROOT
ATOM      1  C   UNL     1      -1.256  -0.757   0.009  0.00  0.00    +0.029 C 
ATOM      2  C   UNL     1      -1.238  -2.117  -0.101  0.00  0.00    +0.084 C 
ENDROOT
BRANCH   1   6
ATOM      3  C   UNL     1       2.337   1.361   0.779  0.00  0.00    +0.161 A 
ATOM      4  C   UNL     1       1.371   1.913  -0.051  0.00  0.00    +0.050 A 
ATOM      5  C   UNL     1       0.203   1.230  -0.304  0.00  0.00    +0.012 A 
ATOM      6  C   UNL     1      -0.013  -0.027   0.277  0.00  0.00    -0.020 A 
ATOM      7  C   UNL     1       0.963  -0.583   1.114  0.00  0.00    +0.057 A 
ATOM      8  C   UNL     1       2.131   0.111   1.362  0.00  0.00    +0.159 A 
BRANCH   3  10
ATOM      9  C   UNL     1       3.635   3.316   0.397  0.00  0.00    +0.277 C 
ATOM     10  O   UNL     1       3.488   2.040   1.025  0.00  0.00    -0.491 OA
ENDBRANCH   3  10
BRANCH   8  11
ATOM     11  O   UNL     1       3.080  -0.426   2.174  0.00  0.00    -0.503 OA
ATOM     12  H   UNL     1       3.733  -0.969   1.712  0.00  0.00    +0.292 HD
ENDBRANCH   8  11
ENDBRANCH   1   6
BRANCH   2  13
ATOM     13  C   UNL     1      -2.505  -2.865  -0.204  0.00  0.00    +0.119 A 
ATOM     14  N   UNL     1      -2.701  -4.171  -0.318  0.00  0.00    -0.238 NA
ATOM     15  C   UNL     1      -3.917  -4.676  -0.400  0.00  0.00    +0.080 A 
ATOM     16  C   UNL     1      -4.999  -3.835  -0.367  0.00  0.00    +0.075 A 
ATOM     17  S   UNL     1      -4.184  -2.252  -0.203  0.00  0.00    -0.074 S 
BRANCH  15  18
ATOM     18  C   UNL     1      -4.112  -6.141  -0.525  0.00  0.00    +0.019 A 
ATOM     19  C   UNL     1      -5.398  -6.672  -0.605  0.00  0.00    +0.013 A 
ATOM     20  C   UNL     1      -5.574  -8.035  -0.727  0.00  0.00    +0.021 A 
ATOM     21  C   UNL     1      -4.476  -8.877  -0.759  0.00  0.00    +0.042 A 
ATOM     22  C   UNL     1      -3.196  -8.357  -0.675  0.00  0.00    +0.040 A 
ATOM     23  C   UNL     1      -3.008  -6.994  -0.558  0.00  0.00    +0.052 A 
ATOM     24 CL   UNL     1      -1.403  -6.342  -0.452  0.00  0.00    -0.083 Cl
ATOM     25 CL   UNL     1      -4.705 -10.592  -0.905  0.00  0.00    -0.083 Cl
ENDBRANCH  15  18
ENDBRANCH   2  13
BRANCH   2  26
ATOM     26  C   UNL     1       0.010  -2.818  -0.116  0.00  0.00    +0.102 C 
ATOM     27  N   UNL     1       1.001  -3.373  -0.129  0.00  0.00    -0.191 NA
ENDBRANCH   2  26
TORSDOF 6
