REMARK  Name = ZINC09424092
REMARK  8 active torsions:
REMARK  status: ('A' for Active; 'I' for Inactive)
REMARK    1  A    between atoms: C_1  and  C_2
REMARK    2  A    between atoms: C_7  and  O_8
REMARK    3  A    between atoms: O_8  and  C_9
REMARK    4  A    between atoms: C_9  and  C_10
REMARK    5  A    between atoms: C_10  and  O_11
REMARK    6  A    between atoms: O_11  and  C_12
REMARK    7  A    between atoms: C_15  and  C_19
REMARK    8  A    between atoms: C_29  and  C_31
REMARK                            x       y       z     vdW  Elec       q    Type
REMARK                         _______ _______ _______ _____ _____    ______ ____
ROOT
ATOM      1  C   UNL     1      -1.842   4.408   9.084  0.00  0.00    +0.024 C 
ATOM      2  C   UNL     1      -1.311   4.112  10.320  0.00  0.00    +0.081 C 
ATOM      3  C   UNL     1      -1.557   4.978  11.508  0.00  0.00    +0.153 C 
ATOM      4  N   UNL     1      -2.668   5.637  11.698  0.00  0.00    -0.283 NA
ATOM      5  N   UNL     1      -0.470   5.014  12.408  0.00  0.00    -0.152 N 
ATOM      6  C   UNL     1       0.410   3.953  12.387  0.00  0.00    +0.181 C 
ATOM      7  N   UNL     1       0.420   2.941  11.557  0.00  0.00    -0.152 NA
ATOM      8  C   UNL     1      -0.468   2.911  10.541  0.00  0.00    +0.273 C 
ATOM      9  O   UNL     1      -0.574   1.929   9.824  0.00  0.00    -0.268 OA
ATOM     10  S   UNL     1       1.498   4.341  13.733  0.00  0.00    -0.033 S 
ATOM     11  C   UNL     1       0.782   5.921  14.167  0.00  0.00    +0.131 C 
ATOM     12  N   UNL     1      -0.214   6.017  13.320  0.00  0.00    -0.164 NA
ATOM     13  H   UNL     1      -2.777   6.187  12.490  0.00  0.00    +0.188 HD
ENDROOT
BRANCH   1  17
ATOM     14  C   UNL     1      -0.648   2.184   5.686  0.00  0.00    +0.139 A 
ATOM     15  C   UNL     1       0.276   2.485   6.681  0.00  0.00    +0.048 A 
ATOM     16  C   UNL     1      -0.105   3.203   7.779  0.00  0.00    +0.011 A 
ATOM     17  C   UNL     1      -1.431   3.639   7.907  0.00  0.00    -0.023 A 
ATOM     18  C   UNL     1      -2.363   3.336   6.904  0.00  0.00    +0.031 A 
ATOM     19  C   UNL     1      -1.967   2.617   5.799  0.00  0.00    +0.083 A 
ATOM     20 CL   UNL     1      -3.113   2.243   4.550  0.00  0.00    -0.080 Cl
BRANCH  14  21
ATOM     21  O   UNL     1      -0.262   1.470   4.599  0.00  0.00    -0.487 OA
BRANCH  21  22
ATOM     22  C   UNL     1       1.105   1.058   4.546  0.00  0.00    +0.270 C 
BRANCH  22  23
ATOM     23  C   UNL     1       1.351   0.271   3.257  0.00  0.00    +0.270 C 
BRANCH  23  24
ATOM     24  O   UNL     1       1.173   1.134   2.132  0.00  0.00    -0.488 OA
BRANCH  24  31
ATOM     25  C   UNL     1       0.825   2.821  -0.107  0.00  0.00    +0.047 C 
ATOM     26  C   UNL     1       1.199   1.367  -0.236  0.00  0.00    -0.009 A 
ATOM     27  C   UNL     1       1.392   0.811  -1.486  0.00  0.00    +0.007 A 
ATOM     28  C   UNL     1       1.734  -0.523  -1.605  0.00  0.00    +0.000 A 
ATOM     29  C   UNL     1       1.886  -1.304  -0.474  0.00  0.00    +0.004 A 
ATOM     30  C   UNL     1       1.695  -0.752   0.778  0.00  0.00    +0.046 A 
ATOM     31  C   UNL     1       1.356   0.588   0.901  0.00  0.00    +0.124 A 
ENDBRANCH  24  31
ENDBRANCH  23  24
ENDBRANCH  22  23
ENDBRANCH  21  22
ENDBRANCH  14  21
ENDBRANCH   1  17
BRANCH  11  32
ATOM     32  C   UNL     1       1.205   6.877  15.215  0.00  0.00    +0.027 A 
ATOM     33  C   UNL     1       2.311   6.598  16.027  0.00  0.00    +0.013 A 
ATOM     34  C   UNL     1       2.665   7.524  16.992  0.00  0.00    +0.020 A 
ATOM     35  C   UNL     1       1.923   8.684  17.122  0.00  0.00    +0.111 A 
ATOM     36  N   UNL     1       0.886   8.920  16.342  0.00  0.00    -0.263 NA
ATOM     37  C   UNL     1       0.513   8.072  15.405  0.00  0.00    +0.121 A 
ENDBRANCH  11  32
TORSDOF 7
