REMARK  Name = ZINC20518906
REMARK  7 active torsions:
REMARK  status: ('A' for Active; 'I' for Inactive)
REMARK    1  A    between atoms: C_1  and  O_2
REMARK    2  A    between atoms: O_2  and  C_3
REMARK    3  A    between atoms: C_8  and  C_9
REMARK    4  A    between atoms: C_9  and  C_11
REMARK    5  A    between atoms: C_9  and  N_22
REMARK    6  A    between atoms: C_11  and  O_12
REMARK    7  A    between atoms: O_12  and  C_13
REMARK                            x       y       z     vdW  Elec       q    Type
REMARK                         _______ _______ _______ _____ _____    ______ ____
ROOT
ATOM      1  C   UNL     1       2.456   3.933   0.000  0.00  0.00    -0.002 C 
ENDROOT
BRANCH   1   7
ATOM      2  C   UNL     1      -0.050   3.842   0.023  0.00  0.00    +0.122 A 
ATOM      3  C   UNL     1      -1.242   3.131   0.031  0.00  0.00    +0.046 A 
ATOM      4  C   UNL     1      -1.220   1.750   0.017  0.00  0.00    +0.004 A 
ATOM      5  C   UNL     1      -0.013   1.076   0.008  0.00  0.00    +0.000 A 
ATOM      6  C   UNL     1       1.176   1.782   0.000  0.00  0.00    +0.005 A 
ATOM      7  C   UNL     1       1.160   3.164   0.008  0.00  0.00    -0.017 A 
BRANCH   2   9
ATOM      8  C   UNL     1      -1.350   5.832   0.047  0.00  0.00    +0.277 C 
ATOM      9  O   UNL     1      -0.069   5.201   0.031  0.00  0.00    -0.495 OA
ENDBRANCH   2   9
ENDBRANCH   1   7
BRANCH   1  10
ATOM     10  N   UNL     1       3.512   3.107  -0.599  0.00  0.00    +0.385 N 
ATOM     11  H   UNL     1       4.458   3.668  -0.605  0.00  0.00    -0.089 HD
ATOM     12  H   UNL     1       3.233   2.847  -1.631  0.00  0.00    -0.089 HD
ATOM     13  H   UNL     1       3.636   2.186  -0.010  0.00  0.00    -0.089 HD
ENDBRANCH   1  10
BRANCH   1  14
ATOM     14  C   UNL     1       2.843   4.294   1.436  0.00  0.00    +0.217 C 
BRANCH  14  15
ATOM     15  O   UNL     1       4.008   5.121   1.421  0.00  0.00    -0.491 OA
BRANCH  15  16
ATOM     16  C   UNL     1       4.487   5.534   2.624  0.00  0.00    +0.148 A 
ATOM     17  C   UNL     1       4.041   6.725   3.179  0.00  0.00    +0.062 A 
ATOM     18  C   UNL     1       4.526   7.139   4.406  0.00  0.00    +0.034 A 
ATOM     19  C   UNL     1       5.463   6.373   5.075  0.00  0.00    +0.020 A 
ATOM     20  C   UNL     1       5.914   5.188   4.521  0.00  0.00    +0.034 A 
ATOM     21  C   UNL     1       5.428   4.767   3.297  0.00  0.00    +0.062 A 
ATOM     22 BR   UNL     1       6.044   3.147   2.542  0.00  0.00    -0.046 Br
ATOM     23 BR   UNL     1       6.130   6.947   6.749  0.00  0.00    -0.050 Br
ATOM     24 BR   UNL     1       2.766   7.777   2.261  0.00  0.00    -0.046 Br
ENDBRANCH  15  16
ENDBRANCH  14  15
ENDBRANCH   1  14
TORSDOF 6
