REMARK  Name = ZINC61997000
REMARK  13 active torsions:
REMARK  status: ('A' for Active; 'I' for Inactive)
REMARK    1  A    between atoms: C_1  and  C_2
REMARK    2  A    between atoms: C_19  and  C_21
REMARK    3  A    between atoms: C_21  and  N_22
REMARK    4  A    between atoms: N_22  and  C_23
REMARK    5  A    between atoms: C_23  and  C_24
REMARK    6  A    between atoms: C_24  and  C_25
REMARK    7  A    between atoms: C_25  and  N_26
REMARK    8  A    between atoms: N_26  and  C_27
REMARK    9  A    between atoms: N_26  and  C_30
REMARK   10  A    between atoms: C_27  and  C_28
REMARK   11  A    between atoms: C_28  and  O_29
REMARK   12  A    between atoms: C_30  and  C_31
REMARK   13  A    between atoms: C_31  and  O_32
REMARK                            x       y       z     vdW  Elec       q    Type
REMARK                         _______ _______ _______ _____ _____    ______ ____
ROOT
ATOM      1  C   UNL     1       0.221   1.668  -0.809  0.00  0.00    +0.012 C 
ATOM      2  C   UNL     1       0.299   0.169  -1.105  0.00  0.00    -0.022 C 
ATOM      3  C   UNL     1      -1.096  -0.352  -1.441  0.00  0.00    +0.007 C 
ATOM      4  C   UNL     1      -2.062   0.002  -0.307  0.00  0.00    +0.005 C 
ATOM      5  C   UNL     1      -1.618  -0.694   0.983  0.00  0.00    +0.030 C 
ATOM      6  C   UNL     1      -0.170  -0.347   1.254  0.00  0.00    -0.073 C 
ATOM      7  C   UNL     1       0.207   0.125   2.416  0.00  0.00    +0.008 C 
ATOM      8  C   UNL     1       0.830  -0.565   0.134  0.00  0.00    +0.021 C 
ATOM      9  C   UNL     1       0.874  -2.061  -0.183  0.00  0.00    +0.016 C 
ATOM     10  C   UNL     1       1.738  -2.363  -1.378  0.00  0.00    +0.045 C 
ATOM     11  C   UNL     1       1.392  -1.518  -2.622  0.00  0.00    +0.181 C 
ATOM     12  C   UNL     1       1.245  -0.063  -2.273  0.00  0.00    +0.052 C 
ATOM     13  O   UNL     1       2.620  -1.642  -3.393  0.00  0.00    -0.461 OA
ATOM     14  C   UNL     1       3.654  -1.503  -2.535  0.00  0.00    +0.312 C 
ATOM     15  O   UNL     1       4.744  -1.060  -2.811  0.00  0.00    -0.250 OA
ATOM     16  C   UNL     1       3.215  -1.981  -1.169  0.00  0.00    +0.118 C 
ENDROOT
BRANCH  16  17
ATOM     17  C   UNL     1       4.035  -3.202  -0.749  0.00  0.00    +0.096 C 
BRANCH  17  18
ATOM     18  N   UNL     1       5.410  -2.787  -0.441  0.00  0.00    -0.315 NA
ATOM     19  H   UNL     1       5.827  -2.307  -1.225  0.00  0.00    +0.122 HD
BRANCH  18  20
ATOM     20  C   UNL     1       6.229  -3.936  -0.033  0.00  0.00    +0.079 C 
BRANCH  20  21
ATOM     21  C   UNL     1       7.651  -3.465   0.279  0.00  0.00    -0.004 C 
BRANCH  21  22
ATOM     22  C   UNL     1       8.503  -4.662   0.704  0.00  0.00    -0.077 C 
BRANCH  22  23
ATOM     23  N   UNL     1       9.868  -4.210   1.003  0.00  0.00    +0.383 N 
ATOM     24  H   UNL     1      10.240  -3.714   0.207  0.00  0.00    -0.082 HD
BRANCH  23  25
ATOM     25  C   UNL     1       9.844  -3.317   2.169  0.00  0.00    -0.051 C 
BRANCH  25  26
ATOM     26  C   UNL     1      11.238  -2.728   2.390  0.00  0.00    +0.137 C 
BRANCH  26  27
ATOM     27  O   UNL     1      11.597  -1.919   1.269  0.00  0.00    -0.397 OA
ATOM     28  H   UNL     1      12.472  -1.512   1.341  0.00  0.00    +0.209 HD
ENDBRANCH  26  27
ENDBRANCH  25  26
ENDBRANCH  23  25
BRANCH  23  29
ATOM     29  C   UNL     1      10.716  -5.373   1.295  0.00  0.00    -0.051 C 
BRANCH  29  30
ATOM     30  C   UNL     1      10.862  -6.228   0.034  0.00  0.00    +0.137 C 
BRANCH  30  31
ATOM     31  O   UNL     1      11.543  -5.477  -0.974  0.00  0.00    -0.397 OA
ATOM     32  H   UNL     1      11.603  -5.929  -1.827  0.00  0.00    +0.209 HD
ENDBRANCH  30  31
ENDBRANCH  29  30
ENDBRANCH  23  29
ENDBRANCH  22  23
ENDBRANCH  21  22
ENDBRANCH  20  21
ENDBRANCH  18  20
ENDBRANCH  17  18
ENDBRANCH  16  17
TORSDOF 12
