REMARK  Name = ZINC63738962
REMARK  11 active torsions:
REMARK  status: ('A' for Active; 'I' for Inactive)
REMARK    1  A    between atoms: C_1  and  C_2
REMARK    2  A    between atoms: N_8  and  C_9
REMARK    3  A    between atoms: C_9  and  C_10
REMARK    4  A    between atoms: C_10  and  C_11
REMARK    5  A    between atoms: C_11  and  N_12
REMARK    6  A    between atoms: C_13  and  C_15
REMARK    7  A    between atoms: C_15  and  C_17
REMARK    8  A    between atoms: C_15  and  C_18
REMARK    9  A    between atoms: C_24  and  C_26
REMARK   10  A    between atoms: C_32  and  O_36
REMARK   11  A    between atoms: O_36  and  C_37
REMARK                            x       y       z     vdW  Elec       q    Type
REMARK                         _______ _______ _______ _____ _____    ______ ____
ROOT
ATOM      1  C   UNL     1       8.198   0.500   5.345  0.00  0.00    +0.004 C 
ATOM      2  C   UNL     1       8.897   0.094   6.645  0.00  0.00    +0.023 C 
ATOM      3  C   UNL     1      10.319   0.665   6.654  0.00  0.00    +0.108 C 
ATOM      4  N   UNL     1      10.248   2.116   6.435  0.00  0.00    -0.300 N 
ATOM      5  C   UNL     1       9.520   2.618   5.263  0.00  0.00    +0.108 C 
ATOM      6  C   UNL     1       8.107   2.026   5.268  0.00  0.00    +0.023 C 
ATOM      7  C   UNL     1      10.839   2.970   7.294  0.00  0.00    +0.242 C 
ATOM      8  O   UNL     1      11.437   2.542   8.259  0.00  0.00    -0.273 OA
ENDROOT
BRANCH   7   9
ATOM      9  C   UNL     1      10.757   4.455   7.056  0.00  0.00    +0.190 C 
ATOM     10  C   UNL     1      11.434   4.812   5.752  0.00  0.00    +0.016 C 
ATOM     11  C   UNL     1      12.444   5.651   6.069  0.00  0.00    -0.003 A 
ATOM     12  C   UNL     1      13.457   6.338   5.256  0.00  0.00    +0.013 A 
ATOM     13  C   UNL     1      14.361   7.133   5.868  0.00  0.00    +0.046 A 
ATOM     14  C   UNL     1      14.356   7.318   7.263  0.00  0.00    +0.122 A 
ATOM     15  C   UNL     1      13.452   6.715   8.077  0.00  0.00    +0.071 A 
ATOM     16  C   UNL     1      12.459   5.861   7.535  0.00  0.00    +0.047 A 
ATOM     17  N   UNL     1      11.491   5.176   8.102  0.00  0.00    -0.370 N 
ATOM     18  H   UNL     1      11.295   5.151   9.052  0.00  0.00    +0.161 HD
BRANCH  14  19
ATOM     19  O   UNL     1      15.292   8.129   7.817  0.00  0.00    -0.495 OA
ATOM     20  C   UNL     1      16.226   8.744   6.927  0.00  0.00    +0.277 C 
ENDBRANCH  14  19
ENDBRANCH   7   9
BRANCH   1  21
ATOM     21  C   UNL     1       6.789  -0.096   5.316  0.00  0.00    +0.075 C 
ATOM     22  C   UNL     1       6.880  -1.622   5.393  0.00  0.00    +0.017 C 
BRANCH  21  24
ATOM     23  N   UNL     1       4.842  -0.112   3.791  0.00  0.00    -0.315 N 
ATOM     24  C   UNL     1       6.101   0.302   4.036  0.00  0.00    +0.216 C 
ATOM     25  O   UNL     1       6.680   0.995   3.227  0.00  0.00    -0.276 OA
ATOM     26  H   UNL     1       4.379  -0.666   4.439  0.00  0.00    +0.149 HD
BRANCH  23  27
ATOM     27  C   UNL     1       4.173   0.276   2.547  0.00  0.00    +0.102 C 
BRANCH  27  28
ATOM     28  C   UNL     1       2.764  -0.321   2.518  0.00  0.00    +0.000 C 
BRANCH  28  29
ATOM     29  C   UNL     1       2.066   0.083   1.218  0.00  0.00    -0.077 C 
BRANCH  29  36
ATOM     30  C   UNL     1      -0.019   1.526   0.010  0.00  0.00    -0.013 C 
ATOM     31  C   UNL     1       0.002  -0.004   0.002  0.00  0.00    -0.072 C 
ATOM     32  C   UNL     1      -1.434  -0.533   0.011  0.00  0.00    -0.016 C 
ATOM     33  C   UNL     1      -1.408  -2.064   0.003  0.00  0.00    -0.003 C 
ATOM     34  C   UNL     1      -0.600  -2.558   1.206  0.00  0.00    -0.019 C 
ATOM     35  C   UNL     1       0.805  -1.954   1.152  0.00  0.00    -0.078 C 
ATOM     36  N   UNL     1       0.713  -0.490   1.191  0.00  0.00    +0.381 N 
ATOM     37  H   UNL     1       0.213  -0.206   2.020  0.00  0.00    -0.081 HD
ENDBRANCH  29  36
ENDBRANCH  28  29
ENDBRANCH  27  28
ENDBRANCH  23  27
ENDBRANCH  21  24
ENDBRANCH   1  21
TORSDOF 8
