REMARK  Name = ZINC63694457
REMARK  9 active torsions:
REMARK  status: ('A' for Active; 'I' for Inactive)
REMARK    1  A    between atoms: C_7  and  C_10
REMARK    2  A    between atoms: C_10  and  C_11
REMARK    3  A    between atoms: C_11  and  N_12
REMARK    4  A    between atoms: C_13  and  C_15
REMARK    5  A    between atoms: N_17  and  C_18
REMARK    6  A    between atoms: C_18  and  C_19
REMARK    7  A    between atoms: C_19  and  C_21
REMARK    8  A    between atoms: C_19  and  N_26
REMARK    9  A    between atoms: N_29  and  C_32
REMARK                            x       y       z     vdW  Elec       q    Type
REMARK                         _______ _______ _______ _____ _____    ______ ____
ROOT
ATOM      1  C   UNL     1      -1.429  -8.099  -2.307  0.00  0.00    +0.299 C 
ATOM      2  O   UNL     1      -2.010  -8.775  -1.484  0.00  0.00    -0.265 OA
ATOM      3  N   UNL     1      -1.901  -8.020  -3.567  0.00  0.00    -0.306 N 
ATOM      4  H   UNL     1      -1.438  -7.479  -4.226  0.00  0.00    +0.149 HD
ENDROOT
BRANCH   1   6
ATOM      5  N   UNL     1       0.280  -7.433  -0.665  0.00  0.00    -0.307 N 
ATOM      6  C   UNL     1      -0.192  -7.354  -1.925  0.00  0.00    +0.299 C 
ATOM      7  O   UNL     1       0.389  -6.678  -2.748  0.00  0.00    -0.265 OA
ATOM      8  H   UNL     1      -0.183  -7.974  -0.006  0.00  0.00    +0.149 HD
BRANCH   5   9
ATOM      9  C   UNL     1       1.494  -6.703  -0.290  0.00  0.00    +0.109 C 
BRANCH   9  10
ATOM     10  C   UNL     1       1.809  -6.962   1.185  0.00  0.00    +0.052 C 
BRANCH  10  17
ATOM     11  C   UNL     1       2.483  -2.857   3.120  0.00  0.00    +0.001 A 
ATOM     12  C   UNL     1       3.835  -2.538   3.306  0.00  0.00    +0.002 A 
ATOM     13  C   UNL     1       4.836  -3.369   2.947  0.00  0.00    +0.026 A 
ATOM     14  C   UNL     1       4.547  -4.627   2.351  0.00  0.00    +0.043 A 
ATOM     15  N   UNL     1       5.327  -5.590   1.923  0.00  0.00    -0.380 N 
ATOM     16  C   UNL     1       4.487  -6.672   1.395  0.00  0.00    +0.144 C 
ATOM     17  C   UNL     1       3.058  -6.211   1.571  0.00  0.00    -0.040 C 
ATOM     18  C   UNL     1       3.126  -4.988   2.144  0.00  0.00    -0.001 A 
ATOM     19  C   UNL     1       2.098  -4.027   2.564  0.00  0.00    +0.010 A 
ATOM     20  H   UNL     1       6.296  -5.588   1.950  0.00  0.00    +0.160 HD
ENDBRANCH  10  17
ENDBRANCH   9  10
ENDBRANCH   5   9
ENDBRANCH   1   6
BRANCH   3  21
ATOM     21  C   UNL     1      -3.115  -8.750  -3.942  0.00  0.00    +0.131 C 
BRANCH  21  22
ATOM     22  C   UNL     1      -3.430  -8.491  -5.417  0.00  0.00    +0.140 C 
BRANCH  22  23
ATOM     23  N   UNL     1      -2.261  -8.837  -6.236  0.00  0.00    -0.288 NA
ATOM     24  C   UNL     1      -1.814 -10.209  -5.961  0.00  0.00    +0.104 C 
ATOM     25  C   UNL     1      -0.494 -10.469  -6.695  0.00  0.00    +0.120 C 
ATOM     26  N   UNL     1      -0.680 -10.149  -8.118  0.00  0.00    -0.327 N 
ATOM     27  C   UNL     1      -1.254  -8.841  -8.468  0.00  0.00    +0.120 C 
ATOM     28  C   UNL     1      -2.544  -8.645  -7.665  0.00  0.00    +0.104 C 
BRANCH  26  29
ATOM     29  C   UNL     1      -0.319 -11.063  -9.113  0.00  0.00    +0.030 A 
ATOM     30  C   UNL     1      -0.601 -10.790 -10.445  0.00  0.00    +0.026 A 
ATOM     31  C   UNL     1      -0.244 -11.694 -11.425  0.00  0.00    +0.040 A 
ATOM     32  C   UNL     1       0.395 -12.874 -11.081  0.00  0.00    +0.124 A 
ATOM     33  C   UNL     1       0.677 -13.149  -9.754  0.00  0.00    +0.040 A 
ATOM     34  C   UNL     1       0.326 -12.245  -8.770  0.00  0.00    +0.026 A 
ATOM     35  F   UNL     1       0.743 -13.758 -12.042  0.00  0.00    -0.205 F 
ENDBRANCH  26  29
ENDBRANCH  22  23
BRANCH  22  36
ATOM     36  C   UNL     1      -4.606  -9.337  -5.835  0.00  0.00    +0.123 A 
ATOM     37  C   UNL     1      -5.847  -8.887  -6.091  0.00  0.00    +0.046 A 
ATOM     38  C   UNL     1      -6.625 -10.013  -6.446  0.00  0.00    +0.041 A 
ATOM     39  C   UNL     1      -5.813 -11.083  -6.386  0.00  0.00    +0.195 A 
ATOM     40  O   UNL     1      -4.589 -10.667  -6.021  0.00  0.00    -0.466 OA
ENDBRANCH  22  36
ENDBRANCH  21  22
ENDBRANCH   3  21
TORSDOF 9
