REMARK  Name = ZINC12188202
REMARK  9 active torsions:
REMARK  status: ('A' for Active; 'I' for Inactive)
REMARK    1  A    between atoms: C_1  and  C_2
REMARK    2  A    between atoms: C_3  and  C_12
REMARK    3  A    between atoms: C_4  and  C_11
REMARK    4  A    between atoms: N_5  and  C_7
REMARK    5  A    between atoms: C_7  and  C_8
REMARK    6  A    between atoms: C_8  and  C_10
REMARK    7  A    between atoms: C_12  and  N_57
REMARK    8  A    between atoms: C_15  and  C_18
REMARK    9  A    between atoms: C_15  and  O_27
REMARK                            x       y       z     vdW  Elec       q    Type
REMARK                         _______ _______ _______ _____ _____    ______ ____
ROOT
ATOM      1  C   UNL     1       1.344   2.014   0.000  0.00  0.00    -0.075 C 
ATOM      2  C   UNL     1       2.086   1.565   1.261  0.00  0.00    +0.021 C 
ATOM      3  C   UNL     1       2.133   0.035   1.302  0.00  0.00    +0.088 C 
ATOM      4  C   UNL     1       0.704  -0.513   1.263  0.00  0.00    +0.021 C 
ATOM      5  C   UNL     1       0.002  -0.004   0.002  0.00  0.00    -0.075 C 
ATOM      6  N   UNL     1      -0.032   1.474   0.035  0.00  0.00    +0.383 N 
ATOM      7  H   UNL     1      -0.487   1.777   0.904  0.00  0.00    -0.081 HD
ENDROOT
BRANCH   3   8
ATOM      8  C   UNL     1       2.810  -0.414   2.572  0.00  0.00    -0.013 A 
ATOM      9  C   UNL     1       2.061  -0.630   3.713  0.00  0.00    +0.010 A 
ATOM     10  C   UNL     1       2.677  -1.042   4.880  0.00  0.00    +0.050 A 
ATOM     11  C   UNL     1       4.048  -1.239   4.908  0.00  0.00    +0.166 A 
ATOM     12  C   UNL     1       4.803  -1.021   3.758  0.00  0.00    +0.167 A 
ATOM     13  C   UNL     1       4.178  -0.613   2.591  0.00  0.00    +0.056 A 
ATOM     14  O   UNL     1       6.113  -1.280   4.040  0.00  0.00    -0.453 OA
ATOM     15  C   UNL     1       6.099  -2.051   5.256  0.00  0.00    +0.466 C 
ATOM     16  O   UNL     1       4.885  -1.636   5.911  0.00  0.00    -0.453 OA
ENDBRANCH   3   8
BRANCH   3  17
ATOM     17  O   UNL     1       2.862  -0.451   0.174  0.00  0.00    -0.384 OA
ATOM     18  H   UNL     1       3.778  -0.142   0.134  0.00  0.00    +0.211 HD
ENDBRANCH   3  17
BRANCH   6  19
ATOM     19  C   UNL     1      -0.804   1.986  -1.115  0.00  0.00    -0.039 C 
BRANCH  19  22
ATOM     20  C   UNL     1      -3.227   3.367   0.391  0.00  0.00    +0.068 C 
ATOM     21  C   UNL     1      -2.078   4.079  -0.276  0.00  0.00    +0.062 A 
ATOM     22  C   UNL     1      -1.009   3.469  -0.940  0.00  0.00    -0.021 A 
ATOM     23  C   UNL     1      -0.195   4.445  -1.403  0.00  0.00    +0.038 A 
ATOM     24  N   UNL     1      -0.726   5.631  -1.039  0.00  0.00    -0.264 N 
ATOM     25  N   UNL     1      -1.906   5.375  -0.329  0.00  0.00    -0.176 NA
ATOM     26  C   UNL     1       1.078   4.244  -2.185  0.00  0.00    +0.065 C 
BRANCH  24  27
ATOM     27  C   UNL     1      -0.167   6.953  -1.335  0.00  0.00    +0.173 C 
BRANCH  27  28
ATOM     28  C   UNL     1      -0.715   7.447  -2.649  0.00  0.00    -0.059 C 
ATOM     29  C   UNL     1      -1.764   8.232  -2.668  0.00  0.00    +0.009 C 
ATOM     30  C   UNL     1      -0.056   7.039  -3.941  0.00  0.00    +0.040 C 
ENDBRANCH  27  28
ENDBRANCH  24  27
ENDBRANCH  19  22
ENDBRANCH   6  19
TORSDOF 6
