REMARK  Name = ZINC05570003
REMARK  3 active torsions:
REMARK  status: ('A' for Active; 'I' for Inactive)
REMARK    1  A    between atoms: C_6  and  S_7
REMARK    2  A    between atoms: S_7  and  N_10
REMARK    3  A    between atoms: N_10  and  O_11
REMARK                            x       y       z     vdW  Elec       q    Type
REMARK                         _______ _______ _______ _____ _____    ______ ____
ROOT
ATOM      1  C   UNL     1      -0.717   3.145   2.004  0.00  0.00    +0.029 A 
ATOM      2  C   UNL     1      -1.435   3.526   3.122  0.00  0.00    +0.016 A 
ATOM      3  C   UNL     1      -2.354   2.659   3.682  0.00  0.00    +0.013 A 
ATOM      4  C   UNL     1      -2.560   1.412   3.121  0.00  0.00    +0.016 A 
ATOM      5  C   UNL     1      -1.846   1.033   2.000  0.00  0.00    +0.029 A 
ATOM      6  C   UNL     1      -0.927   1.900   1.439  0.00  0.00    +0.107 A 
ATOM      7  I   UNL     1      -3.437   3.234   5.381  0.00  0.00    -0.044 I 
ENDROOT
BRANCH   6   8
ATOM      8  S   UNL     1      -0.017   1.417   0.010  0.00  0.00    +0.080 S 
ATOM      9  O   UNL     1       0.002  -0.004   0.002  0.00  0.00    -0.151 OA
ATOM     10  O   UNL     1       1.172   2.195   0.003  0.00  0.00    -0.151 OA
BRANCH   8  11
ATOM     11  N   UNL     1      -0.897   1.885  -1.312  0.00  0.00    -0.071 NA
ATOM     12  H   UNL     1      -1.263   1.218  -1.913  0.00  0.00    +0.181 HD
BRANCH  11  13
ATOM     13  O   UNL     1      -1.117   3.261  -1.565  0.00  0.00    -0.295 OA
ATOM     14  H   UNL     1      -1.641   3.437  -2.359  0.00  0.00    +0.238 HD
ENDBRANCH  11  13
ENDBRANCH   8  11
ENDBRANCH   6   8
TORSDOF 3
