REMARK  Name = ZINC00654884
REMARK  6 active torsions:
REMARK  status: ('A' for Active; 'I' for Inactive)
REMARK    1  A    between atoms: C_1  and  C_2
REMARK    2  A    between atoms: C_2  and  C_4
REMARK    3  A    between atoms: C_2  and  N_16
REMARK    4  A    between atoms: N_6  and  N_7
REMARK    5  A    between atoms: C_8  and  C_9
REMARK    6  A    between atoms: N_16  and  C_17
REMARK                            x       y       z     vdW  Elec       q    Type
REMARK                         _______ _______ _______ _____ _____    ______ ____
ROOT
ATOM      1  C   UNL     1       3.574   7.302   0.008  0.00  0.00    +0.252 C 
ATOM      2  O   UNL     1       2.513   7.890   0.021  0.00  0.00    -0.272 OA
ATOM      3  N   UNL     1       3.597   5.954   0.001  0.00  0.00    -0.205 N 
ATOM      4  H   UNL     1       4.445   5.484  -0.010  0.00  0.00    +0.177 HD
ENDROOT
BRANCH   1   6
ATOM      5  C   UNL     1       5.686   7.715   1.240  0.00  0.00    +0.038 C 
ATOM      6  C   UNL     1       4.866   8.077   0.000  0.00  0.00    +0.155 C 
BRANCH   6   7
ATOM      7  N   UNL     1       4.574   9.513   0.011  0.00  0.00    -0.333 N 
ATOM      8  H   UNL     1       3.735   9.834   0.375  0.00  0.00    +0.147 HD
BRANCH   7   9
ATOM      9  C   UNL     1       5.504  10.419  -0.504  0.00  0.00    +0.029 A 
ATOM     10  C   UNL     1       6.710   9.960  -1.021  0.00  0.00    +0.023 A 
ATOM     11  C   UNL     1       7.625  10.858  -1.534  0.00  0.00    +0.003 A 
ATOM     12  C   UNL     1       7.349  12.213  -1.524  0.00  0.00    +0.015 A 
ATOM     13  C   UNL     1       6.152  12.673  -1.005  0.00  0.00    +0.020 A 
ATOM     14  C   UNL     1       5.229  11.780  -0.495  0.00  0.00    +0.038 A 
ATOM     15 BR   UNL     1       5.779  14.527  -0.993  0.00  0.00    -0.050 Br
ENDBRANCH   7   9
ENDBRANCH   6   7
ENDBRANCH   1   6
BRANCH   3  16
ATOM     16  N   UNL     1       2.396   5.233   0.008  0.00  0.00    -0.188 NA
ATOM     17  C   UNL     1       2.418   3.936   0.001  0.00  0.00    +0.138 C 
BRANCH  17  18
ATOM     18  C   UNL     1       1.153   3.177   0.008  0.00  0.00    -0.004 A 
ATOM     19  C   UNL     1       1.173   1.780   0.000  0.00  0.00    +0.009 A 
ATOM     20  C   UNL     1      -0.013   1.076   0.008  0.00  0.00    +0.002 A 
ATOM     21  C   UNL     1      -1.221   1.750   0.017  0.00  0.00    +0.020 A 
ATOM     22  C   UNL     1      -1.249   3.134   0.031  0.00  0.00    +0.042 A 
ATOM     23  C   UNL     1      -0.070   3.851   0.023  0.00  0.00    +0.029 A 
ATOM     24 CL   UNL     1      -2.771   3.969   0.049  0.00  0.00    -0.084 Cl
ENDBRANCH  17  18
ENDBRANCH   3  16
TORSDOF 5
