REMARK  Name = ZINC36029114
REMARK  8 active torsions:
REMARK  status: ('A' for Active; 'I' for Inactive)
REMARK    1  A    between atoms: C_1  and  C_2
REMARK    2  A    between atoms: C_2  and  C_3
REMARK    3  A    between atoms: C_3  and  C_5
REMARK    4  A    between atoms: C_3  and  C_6
REMARK    5  A    between atoms: N_10  and  C_28
REMARK    6  A    between atoms: N_15  and  S_18
REMARK    7  A    between atoms: S_18  and  C_21
REMARK    8  A    between atoms: C_28  and  C_29
REMARK                            x       y       z     vdW  Elec       q    Type
REMARK                         _______ _______ _______ _____ _____    ______ ____
ROOT
ATOM      1  C   UNL     1      -2.064  -2.426   0.009  0.00  0.00    +0.022 C 
ATOM      2  C   UNL     1      -1.225  -2.640   1.249  0.00  0.00    +0.201 C 
ATOM      3  O   UNL     1      -0.217  -2.030   1.537  0.00  0.00    -0.277 OA
ATOM      4  N   UNL     1      -1.787  -3.623   1.982  0.00  0.00    -0.314 N 
ATOM      5  C   UNL     1      -2.988  -4.115   1.301  0.00  0.00    +0.006 C 
ATOM      6  N   UNL     1      -3.359  -3.084   0.307  0.00  0.00    +0.401 N 
ATOM      7  C   UNL     1      -2.689  -5.432   0.588  0.00  0.00    +0.023 C 
ATOM      8  C   UNL     1      -2.267  -6.484   1.620  0.00  0.00    +0.109 C 
ATOM      9  N   UNL     1      -3.304  -6.570   2.657  0.00  0.00    -0.177 NA
ATOM     10  C   UNL     1      -3.716  -5.342   3.350  0.00  0.00    +0.109 C 
ATOM     11  C   UNL     1      -4.126  -4.300   2.304  0.00  0.00    +0.023 C 
ATOM     12  H   UNL     1      -4.011  -2.424   0.704  0.00  0.00    -0.082 HD
ATOM     13  H   UNL     1      -3.743  -3.509  -0.524  0.00  0.00    -0.082 HD
ENDROOT
BRANCH   9  14
ATOM     14  S   UNL     1      -3.996  -8.026   3.038  0.00  0.00    +0.061 S 
ATOM     15  O   UNL     1      -5.267  -7.736   3.603  0.00  0.00    -0.153 OA
ATOM     16  O   UNL     1      -3.841  -8.860   1.899  0.00  0.00    -0.153 OA
BRANCH  14  17
ATOM     17  C   UNL     1      -3.026  -8.743   4.323  0.00  0.00    +0.106 A 
ATOM     18  C   UNL     1      -1.957  -9.560   4.007  0.00  0.00    +0.031 A 
ATOM     19  C   UNL     1      -1.195 -10.123   5.014  0.00  0.00    +0.040 A 
ATOM     20  C   UNL     1      -1.504  -9.867   6.339  0.00  0.00    +0.124 A 
ATOM     21  C   UNL     1      -2.575  -9.049   6.655  0.00  0.00    +0.040 A 
ATOM     22  C   UNL     1      -3.332  -8.483   5.646  0.00  0.00    +0.031 A 
ATOM     23  F   UNL     1      -0.760 -10.417   7.324  0.00  0.00    -0.205 F 
ENDBRANCH  14  17
ENDBRANCH   9  14
BRANCH   1  24
ATOM     24  C   UNL     1      -2.272  -0.931  -0.243  0.00  0.00    -0.020 C 
ATOM     25  C   UNL     1      -3.182  -0.739  -1.457  0.00  0.00    +0.006 C 
BRANCH  24  27
ATOM     26  C   UNL     1      -1.111   1.246  -0.638  0.00  0.00    +0.004 C 
ATOM     27  C   UNL     1      -0.919  -0.266  -0.510  0.00  0.00    -0.001 C 
ENDBRANCH  24  27
ENDBRANCH   1  24
BRANCH   4  28
ATOM     28  C   UNL     1      -1.276  -4.123   3.261  0.00  0.00    +0.102 C 
ATOM     29  C   UNL     1      -1.866  -3.296   4.404  0.00  0.00    +0.024 C 
ENDBRANCH   4  28
TORSDOF 5
