REMARK  Name = ZINC33784958
REMARK  14 active torsions:
REMARK  status: ('A' for Active; 'I' for Inactive)
REMARK    1  A    between atoms: C_1  and  C_2
REMARK    2  A    between atoms: C_2  and  C_3
REMARK    3  A    between atoms: C_3  and  C_4
REMARK    4  A    between atoms: C_4  and  C_6
REMARK    5  A    between atoms: C_4  and  N_7
REMARK    6  A    between atoms: N_7  and  C_8
REMARK    7  A    between atoms: C_8  and  C_10
REMARK    8  A    between atoms: C_8  and  C_16
REMARK    9  A    between atoms: N_18  and  C_19
REMARK   10  A    between atoms: C_20  and  C_30
REMARK   11  A    between atoms: C_25  and  C_29
REMARK   12  A    between atoms: C_30  and  O_32
REMARK   13  A    between atoms: O_32  and  C_33
REMARK   14  A    between atoms: C_33  and  C_34
REMARK                            x       y       z     vdW  Elec       q    Type
REMARK                         _______ _______ _______ _____ _____    ______ ____
ROOT
ATOM      1  C   UNL     1       2.227  -6.106  -3.026  0.00  0.00    +0.208 C 
ATOM      2  O   UNL     1       2.199  -5.214  -3.848  0.00  0.00    -0.277 OA
ATOM      3  N   UNL     1       1.930  -5.845  -1.738  0.00  0.00    -0.280 N 
ATOM      4  H   UNL     1       1.956  -6.654  -0.993  0.00  0.00    +0.155 HD
ENDROOT
BRANCH   3   5
ATOM      5  C   UNL     1       1.592  -4.558  -1.351  0.00  0.00    +0.086 A 
ATOM      6  C   UNL     1       1.258  -4.096  -0.085  0.00  0.00    +0.091 A 
ATOM      7  C   UNL     1       0.941  -2.684   0.053  0.00  0.00    -0.021 A 
ATOM      8  C   UNL     1       1.008  -1.966  -1.089  0.00  0.00    -0.004 A 
ATOM      9  S   UNL     1       1.484  -3.133  -2.332  0.00  0.00    -0.077 S 
ATOM     10  C   UNL     1       0.736  -0.502  -1.252  0.00  0.00    +0.046 C 
ATOM     11  C   UNL     1       0.002  -0.004   0.002  0.00  0.00    -0.009 C 
ATOM     12  C   UNL     1       0.742  -0.514   1.242  0.00  0.00    +0.008 C 
ATOM     13  C   UNL     1       0.557  -2.027   1.373  0.00  0.00    +0.037 C 
ATOM     14  C   UNL     1      -0.019   1.526   0.010  0.00  0.00    +0.008 C 
BRANCH   6  15
ATOM     15  C   UNL     1       1.226  -4.998   1.068  0.00  0.00    +0.342 C 
ATOM     16  O   UNL     1       0.198  -5.582   1.355  0.00  0.00    -0.245 OA
BRANCH  15  17
ATOM     17  O   UNL     1       2.336  -5.182   1.812  0.00  0.00    -0.461 OA
BRANCH  17  18
ATOM     18  C   UNL     1       2.231  -6.090   2.940  0.00  0.00    +0.229 C 
ATOM     19  C   UNL     1       3.579  -6.170   3.658  0.00  0.00    +0.048 C 
ENDBRANCH  17  18
ENDBRANCH  15  17
ENDBRANCH   6  15
ENDBRANCH   3   5
BRANCH   1  20
ATOM     20  C   UNL     1       2.594  -7.506  -3.446  0.00  0.00    +0.047 C 
BRANCH  20  21
ATOM     21  C   UNL     1       1.451  -8.439  -3.140  0.00  0.00    -0.053 A 
ATOM     22  C   UNL     1       0.363  -8.500  -3.990  0.00  0.00    +0.002 A 
ATOM     23  C   UNL     1      -0.684  -9.360  -3.712  0.00  0.00    +0.000 A 
ATOM     24  C   UNL     1      -0.647 -10.149  -2.578  0.00  0.00    +0.000 A 
ATOM     25  C   UNL     1       0.438 -10.083  -1.725  0.00  0.00    +0.000 A 
ATOM     26  C   UNL     1       1.488  -9.228  -2.006  0.00  0.00    +0.002 A 
ENDBRANCH  20  21
BRANCH  20  27
ATOM     27  N   UNL     1       2.871  -7.528  -4.888  0.00  0.00    +0.391 N 
ATOM     28  H   UNL     1       3.342  -6.575  -5.171  0.00  0.00    -0.084 HD
ATOM     29  H   UNL     1       1.920  -7.641  -5.429  0.00  0.00    -0.084 HD
BRANCH  27  30
ATOM     30  C   UNL     1       3.767  -8.639  -5.236  0.00  0.00    -0.074 C 
ATOM     31  C   UNL     1       2.945  -9.913  -5.441  0.00  0.00    -0.014 C 
BRANCH  30  32
ATOM     32  C   UNL     1       4.519  -8.304  -6.526  0.00  0.00    -0.016 C 
BRANCH  32  34
ATOM     33  C   UNL     1       6.189  -6.769  -7.574  0.00  0.00    +0.004 C 
ATOM     34  C   UNL     1       5.437  -7.104  -6.284  0.00  0.00    -0.005 C 
ENDBRANCH  32  34
ENDBRANCH  30  32
ENDBRANCH  27  30
ENDBRANCH  20  27
ENDBRANCH   1  20
TORSDOF 10
