REMARK  Name = ZINC13482487
REMARK  11 active torsions:
REMARK  status: ('A' for Active; 'I' for Inactive)
REMARK    1  A    between atoms: C_1  and  C_2
REMARK    2  A    between atoms: C_2  and  C_3
REMARK    3  A    between atoms: C_2  and  C_4
REMARK    4  A    between atoms: C_2  and  C_5
REMARK    5  A    between atoms: N_7  and  C_8
REMARK    6  A    between atoms: C_8  and  C_10
REMARK    7  A    between atoms: C_8  and  N_14
REMARK    8  A    between atoms: N_14  and  C_15
REMARK    9  A    between atoms: C_15  and  N_16
REMARK   10  A    between atoms: N_16  and  C_17
REMARK   11  A    between atoms: C_18  and  C_26
REMARK                            x       y       z     vdW  Elec       q    Type
REMARK                         _______ _______ _______ _____ _____    ______ ____
ROOT
ATOM      1  N   UNL     1       2.868  -2.768  -2.309  0.00  0.00    -0.305 N 
ATOM      2  H   UNL     1       2.972  -3.623  -1.862  0.00  0.00    +0.150 HD
ENDROOT
BRANCH   1   3
ATOM      3  C   UNL     1       3.954  -2.026  -2.601  0.00  0.00    +0.136 C 
ATOM      4  S   UNL     1       3.772  -0.517  -3.389  0.00  0.00    -0.019 S 
BRANCH   3   5
ATOM      5  N   UNL     1       5.183  -2.470  -2.274  0.00  0.00    -0.290 N 
ATOM      6  H   UNL     1       5.287  -3.325  -1.827  0.00  0.00    +0.154 HD
BRANCH   5   7
ATOM      7  C   UNL     1       6.301  -1.706  -2.575  0.00  0.00    +0.089 A 
ATOM      8  C   UNL     1       7.630  -2.003  -2.321  0.00  0.00    +0.084 A 
ATOM      9  C   UNL     1       8.621  -1.027  -2.739  0.00  0.00    -0.018 A 
ATOM     10  C   UNL     1       8.101   0.068  -3.334  0.00  0.00    -0.004 A 
ATOM     11  S   UNL     1       6.354  -0.211  -3.337  0.00  0.00    -0.077 S 
ATOM     12  C   UNL     1       8.856   1.245  -3.870  0.00  0.00    +0.043 C 
ATOM     13  C   UNL     1      10.284   1.199  -3.307  0.00  0.00    +0.005 C 
ATOM     14  C   UNL     1      10.842  -0.216  -3.487  0.00  0.00    +0.005 C 
ATOM     15  C   UNL     1      10.122  -1.184  -2.545  0.00  0.00    +0.037 C 
BRANCH   8  16
ATOM     16  C   UNL     1       8.011  -3.222  -1.673  0.00  0.00    +0.102 C 
ATOM     17  N   UNL     1       8.313  -4.189  -1.159  0.00  0.00    -0.191 NA
ENDBRANCH   8  16
ENDBRANCH   5   7
ENDBRANCH   3   5
ENDBRANCH   1   3
BRANCH   1  18
ATOM     18  C   UNL     1       1.532  -2.285  -2.665  0.00  0.00    +0.211 C 
BRANCH  18  21
ATOM     19  C   UNL     1       0.707  -0.490  -1.238  0.00  0.00    +0.220 C 
ATOM     20  O   UNL     1       1.150   0.308  -2.036  0.00  0.00    -0.275 OA
ATOM     21  N   UNL     1       0.847  -1.812  -1.460  0.00  0.00    -0.293 N 
ATOM     22  H   UNL     1       0.493  -2.451  -0.821  0.00  0.00    +0.151 HD
BRANCH  19  24
ATOM     23  C   UNL     1      -0.019   1.526   0.010  0.00  0.00    +0.020 C 
ATOM     24  C   UNL     1       0.002  -0.004   0.002  0.00  0.00    +0.039 C 
ATOM     25  C   UNL     1       0.742  -0.511   1.242  0.00  0.00    +0.020 C 
ATOM     26  C   UNL     1      -1.433  -0.534   0.013  0.00  0.00    +0.020 C 
ENDBRANCH  19  24
ENDBRANCH  18  21
BRANCH  18  27
ATOM     27  C   UNL     1       0.729  -3.424  -3.295  0.00  0.00    +0.225 C 
ATOM     28 CL   UNL     1      -0.916  -2.829  -3.734  0.00  0.00    -0.080 Cl
ATOM     29 CL   UNL     1       1.573  -4.005  -4.779  0.00  0.00    -0.080 Cl
ATOM     30 CL   UNL     1       0.582  -4.780  -2.116  0.00  0.00    -0.080 Cl
ENDBRANCH  18  27
ENDBRANCH   1  18
TORSDOF 8
