REMARK  Name = ZINC54200424
REMARK  10 active torsions:
REMARK  status: ('A' for Active; 'I' for Inactive)
REMARK    1  A    between atoms: C_1  and  C_2
REMARK    2  A    between atoms: C_2  and  C_3
REMARK    3  A    between atoms: C_3  and  C_5
REMARK    4  A    between atoms: C_3  and  C_6
REMARK    5  A    between atoms: C_9  and  N_12
REMARK    6  A    between atoms: N_12  and  C_13
REMARK    7  A    between atoms: C_13  and  C_15
REMARK    8  A    between atoms: C_13  and  C_21
REMARK    9  A    between atoms: C_27  and  C_32
REMARK   10  A    between atoms: C_30  and  O_31
REMARK                            x       y       z     vdW  Elec       q    Type
REMARK                         _______ _______ _______ _____ _____    ______ ____
ROOT
ATOM      1  C   UNL     1      -2.012  -6.843   1.583  0.00  0.00    +0.136 C 
ENDROOT
BRANCH   1   2
ATOM      2  C   UNL     1      -2.507  -8.203   1.162  0.00  0.00    +0.021 A 
ATOM      3  C   UNL     1      -1.828  -8.901   0.167  0.00  0.00    +0.010 A 
ATOM      4  C   UNL     1      -2.250 -10.132  -0.237  0.00  0.00    +0.010 A 
ATOM      5  C   UNL     1      -3.385 -10.708   0.357  0.00  0.00    +0.004 A 
ATOM      6  C   UNL     1      -3.851 -11.978  -0.034  0.00  0.00    +0.012 A 
ATOM      7  C   UNL     1      -4.961 -12.476   0.587  0.00  0.00    +0.023 A 
ATOM      8  C   UNL     1      -5.598 -11.729   1.577  0.00  0.00    +0.039 A 
ATOM      9  N   UNL     1      -5.161 -10.547   1.937  0.00  0.00    -0.248 NA
ATOM     10  C   UNL     1      -4.080 -10.003   1.369  0.00  0.00    +0.113 A 
ATOM     11  C   UNL     1      -3.611  -8.733   1.766  0.00  0.00    +0.148 A 
ATOM     12  C   UNL     1      -6.821 -12.296   2.249  0.00  0.00    +0.065 C 
BRANCH  11  13
ATOM     13  O   UNL     1      -4.257  -8.039   2.739  0.00  0.00    -0.504 OA
ATOM     14  H   UNL     1      -4.959  -7.461   2.409  0.00  0.00    +0.292 HD
ENDBRANCH  11  13
ENDBRANCH   1   2
BRANCH   1  15
ATOM     15  C   UNL     1      -1.072  -6.991   2.752  0.00  0.00    -0.005 A 
ATOM     16  C   UNL     1      -1.517  -6.759   4.045  0.00  0.00    +0.009 A 
ATOM     17  C   UNL     1      -0.617  -6.907   5.089  0.00  0.00    +0.020 A 
ATOM     18  C   UNL     1       0.684  -7.278   4.809  0.00  0.00    +0.111 A 
ATOM     19  N   UNL     1       1.073  -7.490   3.567  0.00  0.00    -0.263 NA
ATOM     20  C   UNL     1       0.243  -7.365   2.550  0.00  0.00    +0.116 A 
ENDBRANCH   1  15
BRANCH   1  21
ATOM     21  N   UNL     1      -1.306  -6.212   0.466  0.00  0.00    -0.333 N 
ATOM     22  H   UNL     1      -0.902  -6.761  -0.225  0.00  0.00    +0.147 HD
BRANCH  21  26
ATOM     23  C   UNL     1      -1.032  -2.063   0.251  0.00  0.00    -0.044 A 
ATOM     24  C   UNL     1      -0.456  -2.844  -0.734  0.00  0.00    +0.006 A 
ATOM     25  C   UNL     1      -0.544  -4.221  -0.666  0.00  0.00    +0.023 A 
ATOM     26  C   UNL     1      -1.214  -4.821   0.394  0.00  0.00    +0.028 A 
ATOM     27  C   UNL     1      -1.792  -4.033   1.381  0.00  0.00    +0.023 A 
ATOM     28  C   UNL     1      -1.695  -2.657   1.310  0.00  0.00    +0.006 A 
BRANCH  23  29
ATOM     29  C   UNL     1      -0.934  -0.561   0.173  0.00  0.00    +0.016 C 
ATOM     30  C   UNL     1      -1.597  -0.073  -1.116  0.00  0.00    +0.012 C 
BRANCH  29  32
ATOM     31  C   UNL     1       0.638   1.380   0.225  0.00  0.00    +0.004 C 
ATOM     32  C   UNL     1       0.539  -0.146   0.178  0.00  0.00    +0.004 C 
ENDBRANCH  29  32
ENDBRANCH  23  29
ENDBRANCH  21  26
ENDBRANCH   1  21
TORSDOF 7
