REMARK  Name = ZINC39675172
REMARK  12 active torsions:
REMARK  status: ('A' for Active; 'I' for Inactive)
REMARK    1  A    between atoms: C_1  and  C_2
REMARK    2  A    between atoms: C_2  and  C_3
REMARK    3  A    between atoms: C_3  and  C_4
REMARK    4  A    between atoms: C_4  and  C_5
REMARK    5  A    between atoms: C_9  and  C_18
REMARK    6  A    between atoms: N_20  and  C_21
REMARK    7  A    between atoms: C_21  and  C_23
REMARK    8  A    between atoms: C_21  and  C_24
REMARK    9  A    between atoms: C_24  and  C_25
REMARK   10  A    between atoms: C_25  and  C_26
REMARK   11  A    between atoms: C_29  and  O_32
REMARK   12  A    between atoms: O_32  and  C_33
REMARK                            x       y       z     vdW  Elec       q    Type
REMARK                         _______ _______ _______ _____ _____    ______ ____
ROOT
ATOM      1  C   UNL     1      -2.974  -2.605  -0.016  0.00  0.00    +0.216 C 
ATOM      2  O   UNL     1      -3.923  -1.852   0.048  0.00  0.00    -0.276 OA
ATOM      3  N   UNL     1      -3.169  -3.938   0.011  0.00  0.00    -0.300 N 
ATOM      4  C   UNL     1      -2.144  -5.007  -0.049  0.00  0.00    +0.121 C 
ATOM      5  C   UNL     1      -2.641  -6.080   0.946  0.00  0.00    +0.100 C 
ATOM      6  C   UNL     1      -4.159  -5.853   1.043  0.00  0.00    -0.004 C 
ATOM      7  C   UNL     1      -4.456  -4.667   0.114  0.00  0.00    +0.115 C 
ATOM      8  C   UNL     1      -4.551  -5.504   2.475  0.00  0.00    -0.010 C 
ATOM      9  C   UNL     1      -6.071  -5.339   2.558  0.00  0.00    -0.082 C 
ATOM     10  N   UNL     1      -6.723  -6.585   2.141  0.00  0.00    +0.379 N 
ATOM     11  C   UNL     1      -6.416  -6.865   0.733  0.00  0.00    -0.082 C 
ATOM     12  C   UNL     1      -4.910  -7.094   0.573  0.00  0.00    -0.010 C 
ATOM     13  H   UNL     1      -6.390  -7.346   2.714  0.00  0.00    -0.086 HD
ATOM     14  H   UNL     1      -7.722  -6.495   2.254  0.00  0.00    -0.086 HD
ENDROOT
BRANCH   5  15
ATOM     15  C   UNL     1      -2.347  -7.460   0.418  0.00  0.00    +0.218 C 
ATOM     16  O   UNL     1      -2.335  -7.663  -0.777  0.00  0.00    -0.275 OA
ATOM     17  N   UNL     1      -2.098  -8.471   1.275  0.00  0.00    -0.312 N 
ATOM     18  H   UNL     1      -2.108  -8.309   2.232  0.00  0.00    +0.149 HD
BRANCH  17  19
ATOM     19  C   UNL     1      -1.813  -9.813   0.762  0.00  0.00    +0.070 C 
ATOM     20  C   UNL     1      -3.128 -10.551   0.504  0.00  0.00    +0.028 C 
BRANCH  19  21
ATOM     21  C   UNL     1      -0.987 -10.587   1.792  0.00  0.00    +0.026 C 
BRANCH  21  22
ATOM     22  C   UNL     1       0.379  -9.918   1.957  0.00  0.00    +0.037 C 
BRANCH  22  23
ATOM     23  C   UNL     1       1.192 -10.681   2.971  0.00  0.00    -0.047 A 
ATOM     24  C   UNL     1       1.117 -10.345   4.310  0.00  0.00    +0.007 A 
ATOM     25  C   UNL     1       1.862 -11.042   5.241  0.00  0.00    +0.046 A 
ATOM     26  C   UNL     1       2.686 -12.081   4.832  0.00  0.00    +0.120 A 
ATOM     27  C   UNL     1       2.759 -12.416   3.488  0.00  0.00    +0.046 A 
ATOM     28  C   UNL     1       2.008 -11.719   2.561  0.00  0.00    +0.007 A 
BRANCH  26  29
ATOM     29  O   UNL     1       3.420 -12.768   5.746  0.00  0.00    -0.495 OA
ATOM     30  C   UNL     1       4.246 -13.825   5.253  0.00  0.00    +0.277 C 
ENDBRANCH  26  29
ENDBRANCH  22  23
ENDBRANCH  21  22
ENDBRANCH  19  21
ENDBRANCH  17  19
ENDBRANCH   5  15
BRANCH   1  31
ATOM     31  C   UNL     1      -1.578  -2.049  -0.126  0.00  0.00    +0.096 C 
BRANCH  31  32
ATOM     32  C   UNL     1      -1.637  -0.520  -0.136  0.00  0.00    +0.009 C 
BRANCH  32  34
ATOM     33  C   UNL     1      -0.278   1.573  -0.257  0.00  0.00    +0.004 C 
ATOM     34  C   UNL     1      -0.219   0.044  -0.247  0.00  0.00    -0.003 C 
ENDBRANCH  32  34
ENDBRANCH  31  32
ENDBRANCH   1  31
TORSDOF 9
