REMARK  Name = ZINC35664578
REMARK  17 active torsions:
REMARK  status: ('A' for Active; 'I' for Inactive)
REMARK    1  A    between atoms: C_1  and  C_2
REMARK    2  A    between atoms: C_2  and  C_3
REMARK    3  A    between atoms: C_3  and  N_4
REMARK    4  A    between atoms: N_10  and  C_15
REMARK    5  A    between atoms: C_12  and  C_14
REMARK    6  A    between atoms: C_15  and  C_16
REMARK    7  A    between atoms: C_17  and  C_36
REMARK    8  A    between atoms: C_18  and  C_26
REMARK    9  A    between atoms: N_23  and  C_24
REMARK   10  A    between atoms: C_24  and  C_25
REMARK   11  A    between atoms: C_30  and  O_34
REMARK   12  A    between atoms: C_31  and  O_32
REMARK   13  A    between atoms: O_32  and  C_33
REMARK   14  A    between atoms: O_34  and  C_35
REMARK   15  A    between atoms: C_36  and  O_38
REMARK   16  A    between atoms: O_38  and  C_39
REMARK   17  A    between atoms: C_39  and  C_40
REMARK                            x       y       z     vdW  Elec       q    Type
REMARK                         _______ _______ _______ _____ _____    ______ ____
ROOT
ATOM      1  C   UNL     1      -1.476  -8.843   1.274  0.00  0.00    +0.041 C 
ATOM      2  C   UNL     1      -0.330  -8.924   1.983  0.00  0.00    +0.080 C 
ATOM      3  C   UNL     1       0.756  -9.844   1.465  0.00  0.00    +0.147 C 
ATOM      4  N   UNL     1       0.470 -10.581   0.223  0.00  0.00    -0.288 N 
ATOM      5  C   UNL     1      -0.724 -10.395  -0.373  0.00  0.00    +0.307 C 
ATOM      6  O   UNL     1      -0.970 -10.999  -1.399  0.00  0.00    -0.252 OA
ATOM      7  N   UNL     1      -1.651  -9.572   0.132  0.00  0.00    -0.258 N 
ATOM      8  H   UNL     1       1.127 -11.185  -0.159  0.00  0.00    +0.151 HD
ENDROOT
BRANCH   3   9
ATOM      9  C   UNL     1       1.997  -9.019   1.240  0.00  0.00    +0.023 A 
ATOM     10  C   UNL     1       2.245  -8.469  -0.004  0.00  0.00    +0.009 A 
ATOM     11  C   UNL     1       3.382  -7.711  -0.214  0.00  0.00    +0.004 A 
ATOM     12  C   UNL     1       4.276  -7.500   0.819  0.00  0.00    +0.049 A 
ATOM     13  C   UNL     1       4.034  -8.048   2.068  0.00  0.00    +0.162 A 
ATOM     14  C   UNL     1       2.886  -8.806   2.281  0.00  0.00    +0.167 A 
BRANCH  14  15
ATOM     15  O   UNL     1       2.640  -9.342   3.507  0.00  0.00    -0.491 OA
ATOM     16  C   UNL     1       3.162 -10.648   3.760  0.00  0.00    +0.277 C 
ENDBRANCH  14  15
BRANCH  13  17
ATOM     17  O   UNL     1       4.913  -7.842   3.085  0.00  0.00    -0.491 OA
ATOM     18  C   UNL     1       6.066  -7.049   2.795  0.00  0.00    +0.277 C 
ENDBRANCH  13  17
ENDBRANCH   3   9
BRANCH   7  19
ATOM     19  C   UNL     1      -2.923  -9.441  -0.584  0.00  0.00    +0.111 C 
ATOM     20  C   UNL     1      -2.816  -8.310  -1.610  0.00  0.00    +0.025 C 
ENDBRANCH   7  19
BRANCH   2  21
ATOM     21  C   UNL     1      -0.149  -8.173   3.168  0.00  0.00    +0.339 C 
ATOM     22  O   UNL     1      -0.177  -8.729   4.250  0.00  0.00    -0.245 OA
BRANCH  21  23
ATOM     23  O   UNL     1       0.054  -6.841   3.099  0.00  0.00    -0.462 OA
BRANCH  23  24
ATOM     24  C   UNL     1       0.229  -6.146   4.335  0.00  0.00    +0.229 C 
ATOM     25  C   UNL     1       0.445  -4.657   4.058  0.00  0.00    +0.048 C 
ENDBRANCH  23  24
ENDBRANCH  21  23
ENDBRANCH   2  21
BRANCH   1  26
ATOM     26  C   UNL     1      -2.583  -7.939   1.753  0.00  0.00    +0.136 C 
BRANCH  26  33
ATOM     27  N   UNL     1      -1.982  -2.173  -0.453  0.00  0.00    -0.299 N 
ATOM     28  C   UNL     1      -3.087  -2.900  -0.195  0.00  0.00    +0.303 C 
ATOM     29  O   UNL     1      -4.142  -2.342   0.034  0.00  0.00    -0.253 OA
ATOM     30  N   UNL     1      -3.022  -4.246  -0.192  0.00  0.00    -0.280 N 
ATOM     31  C   UNL     1      -1.736  -4.941  -0.360  0.00  0.00    +0.125 C 
ATOM     32  C   UNL     1      -1.585  -5.963   0.771  0.00  0.00    +0.104 C 
ATOM     33  N   UNL     1      -2.764  -6.838   0.797  0.00  0.00    -0.294 NA
ATOM     34  C   UNL     1      -3.985  -6.078   1.096  0.00  0.00    +0.107 C 
ATOM     35  C   UNL     1      -4.234  -5.060  -0.016  0.00  0.00    +0.088 C 
ATOM     36  C   UNL     1      -5.408  -4.157   0.371  0.00  0.00    +0.029 C 
ATOM     37  H   UNL     1      -1.125  -2.615  -0.564  0.00  0.00    +0.150 HD
BRANCH  27  38
ATOM     38  C   UNL     1      -2.073  -0.715  -0.564  0.00  0.00    +0.105 C 
BRANCH  38  40
ATOM     39  C   UNL     1      -0.783   1.385  -0.973  0.00  0.00    +0.005 C 
ATOM     40  C   UNL     1      -0.687  -0.138  -0.857  0.00  0.00    +0.015 C 
ENDBRANCH  38  40
ENDBRANCH  27  38
ENDBRANCH  26  33
ENDBRANCH   1  26
TORSDOF 11
