REMARK  Name = ZINC09242760
REMARK  4 active torsions:
REMARK  status: ('A' for Active; 'I' for Inactive)
REMARK    1  A    between atoms: C_3  and  C_10
REMARK    2  A    between atoms: C_5  and  N_7
REMARK    3  A    between atoms: C_18  and  C_20
REMARK    4  A    between atoms: C_20  and  C_22
REMARK                            x       y       z     vdW  Elec       q    Type
REMARK                         _______ _______ _______ _____ _____    ______ ____
ROOT
ATOM      1  C   UNL     1       0.102   0.385  -0.124  0.00  0.00    +0.016 C 
ATOM      2  C   UNL     1       0.133   1.898   0.156  0.00  0.00    -0.047 C 
ATOM      3  C   UNL     1      -0.587   2.642  -0.987  0.00  0.00    +0.052 C 
ATOM      4  S   UNL     1       0.799   3.577  -1.764  0.00  0.00    -0.181 S 
ATOM      5  C   UNL     1       2.182   2.618  -1.003  0.00  0.00    -0.005 C 
ATOM      6  C   UNL     1       2.225   1.083   0.865  0.00  0.00    +0.052 C 
ATOM      7  C   UNL     1       1.468  -0.147   0.354  0.00  0.00    +0.069 C 
ATOM      8  C   UNL     1       3.675   1.035   0.465  0.00  0.00    -0.024 A 
ATOM      9  C   UNL     1       4.318   0.980  -0.751  0.00  0.00    +0.043 A 
ATOM     10  C   UNL     1       5.703   0.944  -0.800  0.00  0.00    +0.124 A 
ATOM     11  C   UNL     1       6.434   0.964   0.376  0.00  0.00    +0.040 A 
ATOM     12  C   UNL     1       5.791   1.018   1.595  0.00  0.00    +0.026 A 
ATOM     13  C   UNL     1       4.399   1.054   1.652  0.00  0.00    +0.036 A 
ATOM     14  N   UNL     1       3.532   1.109   2.747  0.00  0.00    -0.286 N 
ATOM     15  C   UNL     1       2.240   1.127   2.370  0.00  0.00    +0.212 C 
ATOM     16  O   UNL     1       1.273   1.171   3.102  0.00  0.00    -0.277 OA
ATOM     17  F   UNL     1       6.337   0.891  -1.992  0.00  0.00    -0.205 F 
ATOM     18  H   UNL     1       3.827   1.131   3.671  0.00  0.00    +0.155 HD
ATOM     19  N   UNL     1       1.553   2.248   0.317  0.00  0.00    +0.401 N 
ATOM     20  H   UNL     1       1.641   3.040   0.965  0.00  0.00    -0.078 HD
ENDROOT
BRANCH   1  23
ATOM     21  C   UNL     1       0.378   0.731  -3.873  0.00  0.00    +0.002 A 
ATOM     22  C   UNL     1       0.536   0.964  -2.519  0.00  0.00    +0.004 A 
ATOM     23  C   UNL     1      -0.071   0.130  -1.599  0.00  0.00    -0.043 A 
ATOM     24  C   UNL     1      -0.831  -0.940  -2.032  0.00  0.00    +0.036 A 
ATOM     25  C   UNL     1      -0.992  -1.171  -3.385  0.00  0.00    +0.126 A 
ATOM     26  C   UNL     1      -0.386  -0.337  -4.306  0.00  0.00    +0.033 A 
BRANCH  25  27
ATOM     27  N   UNL     1      -1.810  -2.315  -3.848  0.00  0.00    +0.056 N 
ATOM     28  O   UNL     1      -1.950  -2.520  -5.040  0.00  0.00    -0.126 OA
ATOM     29  O   UNL     1      -2.344  -3.050  -3.037  0.00  0.00    -0.126 OA
ENDBRANCH  25  27
ENDBRANCH   1  23
BRANCH   7  30
ATOM     30  C   UNL     1       2.212  -0.782  -0.792  0.00  0.00    +0.173 C 
ATOM     31  O   UNL     1       2.303  -0.200  -1.854  0.00  0.00    -0.291 OA
BRANCH  30  32
ATOM     32  C   UNL     1       2.803  -2.055  -0.632  0.00  0.00    +0.055 A 
ATOM     33  C   UNL     1       3.520  -2.811  -1.554  0.00  0.00    +0.019 A 
ATOM     34  C   UNL     1       3.992  -4.025  -1.131  0.00  0.00    +0.008 A 
ATOM     35  C   UNL     1       3.734  -4.432   0.142  0.00  0.00    +0.046 A 
ATOM     36  S   UNL     1       2.819  -3.115   0.802  0.00  0.00    -0.094 S 
ENDBRANCH  30  32
ENDBRANCH   7  30
TORSDOF 4
