REMARK  Name = ZINC14201174
REMARK  8 active torsions:
REMARK  status: ('A' for Active; 'I' for Inactive)
REMARK    1  A    between atoms: C_4  and  C_7
REMARK    2  A    between atoms: C_7  and  C_8
REMARK    3  A    between atoms: C_8  and  C_10
REMARK    4  A    between atoms: C_8  and  N_22
REMARK    5  A    between atoms: N_12  and  N_13
REMARK    6  A    between atoms: C_14  and  C_16
REMARK    7  A    between atoms: N_22  and  S_23
REMARK    8  A    between atoms: S_23  and  C_26
REMARK                            x       y       z     vdW  Elec       q    Type
REMARK                         _______ _______ _______ _____ _____    ______ ____
ROOT
ATOM      1  C   UNL     1       1.617   2.246   0.104  0.00  0.00    +0.168 C 
ENDROOT
BRANCH   1   2
ATOM      2  C   UNL     1       2.377   3.497  -0.255  0.00  0.00    +0.248 C 
ATOM      3  O   UNL     1       3.280   3.883   0.456  0.00  0.00    -0.273 OA
ATOM      4  N   UNL     1       2.052   4.187  -1.366  0.00  0.00    -0.233 N 
ATOM      5  H   UNL     1       1.330   3.879  -1.935  0.00  0.00    +0.173 HD
BRANCH   4   6
ATOM      6  N   UNL     1       2.759   5.350  -1.700  0.00  0.00    -0.230 N 
ATOM      7  C   UNL     1       2.435   6.040  -2.811  0.00  0.00    +0.260 C 
ATOM      8  O   UNL     1       1.529   5.654  -3.524  0.00  0.00    -0.269 OA
ATOM      9  H   UNL     1       3.482   5.659  -1.131  0.00  0.00    +0.173 HD
BRANCH   7  10
ATOM     10  C   UNL     1       3.180   7.268  -3.163  0.00  0.00    +0.038 A 
ATOM     11  C   UNL     1       4.217   7.717  -2.344  0.00  0.00    +0.013 A 
ATOM     12  C   UNL     1       4.912   8.860  -2.680  0.00  0.00    +0.001 A 
ATOM     13  C   UNL     1       4.577   9.566  -3.822  0.00  0.00    +0.000 A 
ATOM     14  C   UNL     1       3.546   9.129  -4.636  0.00  0.00    +0.001 A 
ATOM     15  C   UNL     1       2.847   7.985  -4.313  0.00  0.00    +0.013 A 
ENDBRANCH   7  10
ENDBRANCH   4   6
ENDBRANCH   1   2
BRANCH   1  16
ATOM     16  N   UNL     1       2.156   1.686   1.345  0.00  0.00    -0.178 NA
ATOM     17  H   UNL     1       2.071   2.178   2.177  0.00  0.00    +0.149 HD
BRANCH  16  18
ATOM     18  S   UNL     1       2.913   0.213   1.329  0.00  0.00    +0.062 S 
ATOM     19  O   UNL     1       3.370  -0.024   2.653  0.00  0.00    -0.153 OA
ATOM     20  O   UNL     1       2.043  -0.683   0.651  0.00  0.00    -0.153 OA
BRANCH  18  21
ATOM     21  C   UNL     1       4.350   0.377   0.322  0.00  0.00    +0.140 A 
ATOM     22  C   UNL     1       4.447  -0.326  -0.864  0.00  0.00    +0.031 A 
ATOM     23  C   UNL     1       5.572  -0.194  -1.657  0.00  0.00    +0.002 A 
ATOM     24  C   UNL     1       6.606   0.634  -1.258  0.00  0.00    +0.003 A 
ATOM     25  C   UNL     1       6.513   1.333  -0.070  0.00  0.00    +0.040 A 
ATOM     26  C   UNL     1       5.385   1.205   0.722  0.00  0.00    +0.150 A 
ATOM     27  F   UNL     1       5.293   1.888   1.884  0.00  0.00    -0.203 F 
ENDBRANCH  18  21
ENDBRANCH  16  18
ENDBRANCH   1  16
BRANCH   1  28
ATOM     28  C   UNL     1       0.138   2.586   0.298  0.00  0.00    +0.065 C 
BRANCH  28  32
ATOM     29  C   UNL     1      -2.074  -1.006   0.972  0.00  0.00    +0.000 A 
ATOM     30  C   UNL     1      -1.535  -0.315   2.041  0.00  0.00    +0.000 A 
ATOM     31  C   UNL     1      -0.820   0.847   1.823  0.00  0.00    +0.004 A 
ATOM     32  C   UNL     1      -0.642   1.319   0.536  0.00  0.00    -0.045 A 
ATOM     33  C   UNL     1      -1.185   0.631  -0.533  0.00  0.00    +0.004 A 
ATOM     34  C   UNL     1      -1.896  -0.535  -0.316  0.00  0.00    +0.000 A 
ENDBRANCH  28  32
ENDBRANCH   1  28
TORSDOF 8
