REMARK  Name = ZINC39356190
REMARK  6 active torsions:
REMARK  status: ('A' for Active; 'I' for Inactive)
REMARK    1  A    between atoms: C_1  and  C_2
REMARK    2  A    between atoms: C_2  and  N_3
REMARK    3  A    between atoms: C_4  and  C_24
REMARK    4  A    between atoms: C_8  and  S_10
REMARK    5  A    between atoms: S_10  and  C_11
REMARK    6  A    between atoms: C_11  and  C_12
REMARK                            x       y       z     vdW  Elec       q    Type
REMARK                         _______ _______ _______ _____ _____    ______ ____
ROOT
ATOM      1  N   UNL     1      -1.237  -0.521   0.018  0.00  0.00    +0.410 N 
ATOM      2  C   UNL     1      -1.387  -1.992  -0.141  0.00  0.00    +0.052 C 
ATOM      3  N   UNL     1      -2.730  -2.251   0.440  0.00  0.00    -0.266 NA
ATOM      4  N   UNL     1      -2.816  -1.341   1.585  0.00  0.00    -0.262 NA
ATOM      5  C   UNL     1      -1.873  -0.235   1.325  0.00  0.00    +0.077 C 
ATOM      6  H   UNL     1      -3.458  -2.058  -0.231  0.00  0.00    +0.139 HD
ATOM      7  H   UNL     1      -2.586  -1.818   2.444  0.00  0.00    +0.140 HD
ATOM      8  H   UNL     1      -1.716  -0.032  -0.723  0.00  0.00    -0.075 HD
ENDROOT
BRANCH   2   9
ATOM      9  C   UNL     1      -1.348  -2.377  -1.598  0.00  0.00    -0.011 A 
ATOM     10  C   UNL     1      -1.719  -1.462  -2.565  0.00  0.00    +0.006 A 
ATOM     11  C   UNL     1      -1.684  -1.815  -3.901  0.00  0.00    +0.000 A 
ATOM     12  C   UNL     1      -1.276  -3.084  -4.271  0.00  0.00    +0.003 A 
ATOM     13  C   UNL     1      -0.904  -4.000  -3.306  0.00  0.00    +0.038 A 
ATOM     14  C   UNL     1      -0.934  -3.645  -1.968  0.00  0.00    +0.126 A 
ATOM     15  F   UNL     1      -0.566  -4.538  -1.023  0.00  0.00    -0.205 F 
ENDBRANCH   2   9
BRANCH   1  17
ATOM     16  C   UNL     1       0.310   1.369   0.200  0.00  0.00    -0.017 C 
ATOM     17  C   UNL     1       0.184  -0.148   0.045  0.00  0.00    -0.076 C 
ENDBRANCH   1  17
BRANCH   5  18
ATOM     18  S   UNL     1      -2.769   1.341   1.249  0.00  0.00    -0.152 S 
BRANCH  18  19
ATOM     19  C   UNL     1      -3.998   1.084  -0.060  0.00  0.00    +0.143 C 
BRANCH  19  20
ATOM     20  C   UNL     1      -4.822   2.334  -0.228  0.00  0.00    +0.120 A 
ATOM     21  N   UNL     1      -5.806   2.337  -1.165  0.00  0.00    -0.310 N 
ATOM     22  H   UNL     1      -5.960   1.544  -1.702  0.00  0.00    +0.170 HD
ATOM     23  C   UNL     1      -6.574   3.435  -1.355  0.00  0.00    +0.259 A 
ATOM     24  O   UNL     1      -7.460   3.450  -2.189  0.00  0.00    -0.267 OA
ATOM     25  C   UNL     1      -6.297   4.608  -0.513  0.00  0.00    +0.065 A 
ATOM     26  C   UNL     1      -7.029   5.788  -0.629  0.00  0.00    +0.015 A 
ATOM     27  C   UNL     1      -6.726   6.858   0.185  0.00  0.00    +0.001 A 
ATOM     28  C   UNL     1      -5.700   6.768   1.117  0.00  0.00    +0.002 A 
ATOM     29  C   UNL     1      -4.965   5.611   1.247  0.00  0.00    +0.028 A 
ATOM     30  C   UNL     1      -5.253   4.513   0.434  0.00  0.00    +0.078 A 
ATOM     31  N   UNL     1      -4.558   3.353   0.532  0.00  0.00    -0.233 NA
ENDBRANCH  19  20
ENDBRANCH  18  19
ENDBRANCH   5  18
TORSDOF 5
