REMARK  Name = ZINC12244533
REMARK  9 active torsions:
REMARK  status: ('A' for Active; 'I' for Inactive)
REMARK    1  A    between atoms: C_1  and  N_57
REMARK    2  A    between atoms: C_2  and  C_3
REMARK    3  A    between atoms: C_2  and  N_57
REMARK    4  A    between atoms: C_8  and  C_9
REMARK    5  A    between atoms: C_8  and  N_57
REMARK    6  A    between atoms: C_12  and  C_17
REMARK    7  A    between atoms: N_19  and  C_20
REMARK    8  A    between atoms: C_20  and  C_22
REMARK    9  A    between atoms: C_20  and  C_28
REMARK                            x       y       z     vdW  Elec       q    Type
REMARK                         _______ _______ _______ _____ _____    ______ ____
ROOT
ATOM      1  C   UNL     1       1.113   3.195   0.218  0.00  0.00    +0.003 A 
ATOM      2  C   UNL     1      -0.103   3.797   0.248  0.00  0.00    +0.020 A 
ATOM      3  C   UNL     1      -1.261   3.031   0.383  0.00  0.00    +0.020 A 
ATOM      4  C   UNL     1      -1.146   1.646   0.480  0.00  0.00    +0.101 A 
ATOM      5  C   UNL     1       0.147   1.063   0.449  0.00  0.00    +0.261 A 
ATOM      6  O   UNL     1       0.275  -0.145   0.537  0.00  0.00    -0.267 OA
ATOM      7  N   UNL     1       1.233   1.849   0.317  0.00  0.00    -0.327 N 
ATOM      8  H   UNL     1       2.114   1.446   0.292  0.00  0.00    +0.169 HD
ENDROOT
BRANCH   4   9
ATOM      9  C   UNL     1      -2.343   0.803   0.618  0.00  0.00    +0.250 C 
ATOM     10  O   UNL     1      -3.438   1.318   0.750  0.00  0.00    -0.270 OA
ATOM     11  N   UNL     1      -2.228  -0.539   0.597  0.00  0.00    -0.300 N 
ATOM     12  H   UNL     1      -1.351  -0.950   0.562  0.00  0.00    +0.150 HD
BRANCH  11  13
ATOM     13  C   UNL     1      -3.429  -1.378   0.628  0.00  0.00    +0.134 C 
BRANCH  13  14
ATOM     14  C   UNL     1      -3.126  -2.714   0.000  0.00  0.00    -0.023 A 
ATOM     15  C   UNL     1      -1.911  -3.329   0.240  0.00  0.00    +0.007 A 
ATOM     16  C   UNL     1      -1.634  -4.557  -0.331  0.00  0.00    +0.020 A 
ATOM     17  C   UNL     1      -2.568  -5.165  -1.151  0.00  0.00    +0.041 A 
ATOM     18  C   UNL     1      -3.781  -4.545  -1.395  0.00  0.00    +0.020 A 
ATOM     19  C   UNL     1      -4.059  -3.320  -0.820  0.00  0.00    +0.007 A 
ATOM     20 CL   UNL     1      -2.217  -6.704  -1.875  0.00  0.00    -0.084 Cl
ENDBRANCH  13  14
BRANCH  13  21
ATOM     21  C   UNL     1      -3.864  -1.581   2.057  0.00  0.00    -0.023 A 
ATOM     22  C   UNL     1      -2.919  -1.796   3.042  0.00  0.00    +0.006 A 
ATOM     23  C   UNL     1      -3.317  -1.978   4.354  0.00  0.00    +0.000 A 
ATOM     24  C   UNL     1      -4.661  -1.955   4.677  0.00  0.00    +0.000 A 
ATOM     25  C   UNL     1      -5.606  -1.744   3.691  0.00  0.00    +0.000 A 
ATOM     26  C   UNL     1      -5.207  -1.558   2.380  0.00  0.00    +0.006 A 
ENDBRANCH  13  21
ENDBRANCH  11  13
ENDBRANCH   4   9
BRANCH   1  27
ATOM     27  C   UNL     1       2.353   4.039   0.071  0.00  0.00    -0.025 C 
BRANCH  27  29
ATOM     28  C   UNL     1       4.466   4.595   1.113  0.00  0.00    -0.095 C 
ATOM     29  N   UNL     1       3.179   3.890   1.288  0.00  0.00    +0.384 N 
ATOM     30  H   UNL     1       3.364   2.892   1.445  0.00  0.00    -0.081 HD
BRANCH  29  31
ATOM     31  C   UNL     1       2.458   4.435   2.457  0.00  0.00    -0.042 C 
BRANCH  31  32
ATOM     32  C   UNL     1       3.219   4.075   3.708  0.00  0.00    -0.057 A 
ATOM     33  C   UNL     1       2.958   2.891   4.370  0.00  0.00    +0.009 A 
ATOM     34  C   UNL     1       3.664   2.594   5.489  0.00  0.00    +0.045 A 
ATOM     35  S   UNL     1       4.727   4.021   5.644  0.00  0.00    -0.105 S 
ATOM     36  C   UNL     1       4.164   4.911   4.202  0.00  0.00    +0.047 A 
ENDBRANCH  31  32
ENDBRANCH  29  31
ENDBRANCH  27  29
ENDBRANCH   1  27
TORSDOF 8
