REMARK  Name = ZINC03108679
REMARK  9 active torsions:
REMARK  status: ('A' for Active; 'I' for Inactive)
REMARK    1  A    between atoms: C_1  and  C_2
REMARK    2  A    between atoms: C_6  and  O_8
REMARK    3  A    between atoms: O_8  and  C_9
REMARK    4  A    between atoms: C_9  and  C_10
REMARK    5  A    between atoms: N_12  and  C_13
REMARK    6  A    between atoms: C_13  and  C_14
REMARK    7  A    between atoms: N_16  and  N_17
REMARK    8  A    between atoms: C_18  and  C_19
REMARK    9  A    between atoms: C_22  and  N_25
REMARK                            x       y       z     vdW  Elec       q    Type
REMARK                         _______ _______ _______ _____ _____    ______ ____
ROOT
ATOM      1  C   UNL     1       0.135  -8.198   5.090  0.00  0.00    +0.249 C 
ATOM      2  O   UNL     1       0.137  -8.741   4.005  0.00  0.00    -0.272 OA
ATOM      3  N   UNL     1       0.149  -8.940   6.215  0.00  0.00    -0.206 N 
ATOM      4  H   UNL     1       0.148  -8.505   7.083  0.00  0.00    +0.177 HD
ENDROOT
BRANCH   3   5
ATOM      5  N   UNL     1       0.168 -10.338   6.132  0.00  0.00    -0.188 NA
ATOM      6  C   UNL     1       0.182 -11.052   7.215  0.00  0.00    +0.138 C 
BRANCH   6   7
ATOM      7  C   UNL     1       0.201 -12.524   7.128  0.00  0.00    -0.005 A 
ATOM      8  C   UNL     1       0.210 -13.153   5.881  0.00  0.00    +0.012 A 
ATOM      9  C   UNL     1       0.228 -14.530   5.806  0.00  0.00    +0.033 A 
ATOM     10  C   UNL     1       0.237 -15.289   6.964  0.00  0.00    +0.126 A 
ATOM     11  C   UNL     1       0.228 -14.673   8.203  0.00  0.00    +0.033 A 
ATOM     12  C   UNL     1       0.217 -13.296   8.292  0.00  0.00    +0.012 A 
BRANCH  10  13
ATOM     13  N   UNL     1       0.255 -16.767   6.876  0.00  0.00    +0.056 N 
ATOM     14  O   UNL     1       0.263 -17.308   5.795  0.00  0.00    -0.126 OA
ATOM     15  O   UNL     1       0.263 -17.432   7.885  0.00  0.00    -0.126 OA
ENDBRANCH  10  13
ENDBRANCH   6   7
ENDBRANCH   3   5
BRANCH   1  16
ATOM     16  C   UNL     1       0.115  -6.694   5.179  0.00  0.00    +0.202 C 
BRANCH  16  19
ATOM     17  C   UNL     1       0.083  -4.787   3.662  0.00  0.00    +0.251 C 
ATOM     18  O   UNL     1       0.077  -4.055   4.629  0.00  0.00    -0.272 OA
ATOM     19  N   UNL     1       0.101  -6.125   3.830  0.00  0.00    -0.304 N 
ATOM     20  H   UNL     1       0.105  -6.710   3.056  0.00  0.00    +0.149 HD
BRANCH  17  21
ATOM     21  C   UNL     1       0.069  -4.202   2.274  0.00  0.00    +0.324 C 
BRANCH  21  22
ATOM     22  O   UNL     1       0.050  -2.776   2.358  0.00  0.00    -0.483 OA
BRANCH  22  28
ATOM     23  C   UNL     1      -0.018   1.503   0.010  0.00  0.00    +0.044 C 
ATOM     24  C   UNL     1       0.002  -0.004   0.002  0.00  0.00    -0.047 A 
ATOM     25  C   UNL     1       0.006  -0.688  -1.200  0.00  0.00    +0.003 A 
ATOM     26  C   UNL     1       0.024  -2.071  -1.211  0.00  0.00    +0.004 A 
ATOM     27  C   UNL     1       0.039  -2.772  -0.020  0.00  0.00    +0.045 A 
ATOM     28  C   UNL     1       0.035  -2.088   1.186  0.00  0.00    +0.121 A 
ATOM     29  C   UNL     1       0.023  -0.700   1.195  0.00  0.00    +0.049 A 
ENDBRANCH  22  28
ENDBRANCH  21  22
ENDBRANCH  17  21
ENDBRANCH  16  19
ENDBRANCH   1  16
TORSDOF 8
