REMARK  Name = ZINC40985965
REMARK  14 active torsions:
REMARK  status: ('A' for Active; 'I' for Inactive)
REMARK    1  A    between atoms: C_1  and  N_2
REMARK    2  A    between atoms: N_2  and  C_3
REMARK    3  A    between atoms: N_2  and  C_4
REMARK    4  A    between atoms: C_4  and  C_6
REMARK    5  A    between atoms: C_4  and  C_26
REMARK    6  A    between atoms: C_6  and  N_7
REMARK    7  A    between atoms: C_8  and  C_10
REMARK    8  A    between atoms: C_13  and  S_17
REMARK    9  A    between atoms: S_17  and  C_18
REMARK   10  A    between atoms: C_18  and  C_19
REMARK   11  A    between atoms: C_29  and  O_34
REMARK   12  A    between atoms: C_30  and  O_32
REMARK   13  A    between atoms: O_32  and  C_33
REMARK   14  A    between atoms: O_34  and  C_35
REMARK                            x       y       z     vdW  Elec       q    Type
REMARK                         _______ _______ _______ _____ _____    ______ ____
ROOT
ATOM      1  N   UNL     1      -3.599  -0.407  -0.868  0.00  0.00    -0.312 N 
ATOM      2  C   UNL     1      -4.521  -0.044  -1.782  0.00  0.00    +0.248 C 
ATOM      3  O   UNL     1      -4.177   0.528  -2.798  0.00  0.00    -0.270 OA
ATOM      4  H   UNL     1      -3.873  -0.864  -0.057  0.00  0.00    +0.149 HD
ENDROOT
BRANCH   2   5
ATOM      5  C   UNL     1      -5.946  -0.340  -1.548  0.00  0.00    +0.092 A 
ATOM      6  C   UNL     1      -6.363  -0.994  -0.381  0.00  0.00    +0.129 A 
ATOM      7  N   UNL     1      -7.647  -1.240  -0.209  0.00  0.00    -0.229 NA
ATOM      8  C   UNL     1      -8.540  -0.879  -1.123  0.00  0.00    +0.190 A 
ATOM      9  N   UNL     1      -8.187  -0.259  -2.242  0.00  0.00    -0.209 NA
ATOM     10  C   UNL     1      -6.921   0.029  -2.487  0.00  0.00    +0.146 A 
ATOM     11 CL   UNL     1      -6.471   0.847  -3.950  0.00  0.00    -0.061 Cl
BRANCH   8  12
ATOM     12  S   UNL     1     -10.243  -1.234  -0.843  0.00  0.00    -0.081 S 
BRANCH  12  13
ATOM     13  C   UNL     1     -11.076  -0.578  -2.315  0.00  0.00    +0.112 C 
BRANCH  13  14
ATOM     14  C   UNL     1     -12.559  -0.819  -2.202  0.00  0.00    -0.037 A 
ATOM     15  C   UNL     1     -13.108  -1.990  -2.691  0.00  0.00    +0.006 A 
ATOM     16  C   UNL     1     -14.468  -2.212  -2.587  0.00  0.00    +0.020 A 
ATOM     17  C   UNL     1     -15.281  -1.262  -1.995  0.00  0.00    +0.041 A 
ATOM     18  C   UNL     1     -14.731  -0.090  -1.506  0.00  0.00    +0.020 A 
ATOM     19  C   UNL     1     -13.370   0.128  -1.605  0.00  0.00    +0.006 A 
ATOM     20 CL   UNL     1     -16.989  -1.540  -1.865  0.00  0.00    -0.084 Cl
ENDBRANCH  13  14
ENDBRANCH  12  13
ENDBRANCH   8  12
ENDBRANCH   2   5
BRANCH   1  21
ATOM     21  C   UNL     1      -2.182  -0.113  -1.100  0.00  0.00    +0.094 C 
BRANCH  21  22
ATOM     22  C   UNL     1      -1.368  -0.524   0.128  0.00  0.00    -0.021 C 
BRANCH  22  23
ATOM     23  C   UNL     1      -1.453  -2.018   0.309  0.00  0.00    -0.056 A 
ATOM     24  C   UNL     1      -0.653  -2.851  -0.451  0.00  0.00    +0.006 A 
ATOM     25  C   UNL     1      -0.727  -4.222  -0.289  0.00  0.00    +0.049 A 
ATOM     26  C   UNL     1      -1.603  -4.764   0.638  0.00  0.00    +0.161 A 
ATOM     27  C   UNL     1      -2.407  -3.925   1.403  0.00  0.00    +0.162 A 
ATOM     28  C   UNL     1      -2.325  -2.552   1.239  0.00  0.00    +0.051 A 
BRANCH  27  29
ATOM     29  O   UNL     1      -3.269  -4.452   2.314  0.00  0.00    -0.491 OA
ATOM     30  C   UNL     1      -4.063  -3.531   3.065  0.00  0.00    +0.277 C 
ENDBRANCH  27  29
BRANCH  26  31
ATOM     31  O   UNL     1      -1.677  -6.112   0.798  0.00  0.00    -0.491 OA
ATOM     32  C   UNL     1      -0.823  -6.911  -0.022  0.00  0.00    +0.277 C 
ENDBRANCH  26  31
ENDBRANCH  22  23
BRANCH  22  34
ATOM     33  C   UNL     1       0.118   1.324  -0.235  0.00  0.00    -0.096 C 
ATOM     34  N   UNL     1       0.035  -0.133  -0.060  0.00  0.00    +0.382 N 
ATOM     35  C   UNL     1       0.817  -0.530   1.118  0.00  0.00    -0.096 C 
ATOM     36  H   UNL     1       0.405  -0.591  -0.880  0.00  0.00    -0.082 HD
ENDBRANCH  22  34
ENDBRANCH  21  22
ENDBRANCH   1  21
TORSDOF 10
