REMARK  Name = ZINC39419581
REMARK  10 active torsions:
REMARK  status: ('A' for Active; 'I' for Inactive)
REMARK    1  A    between atoms: C_1  and  C_2
REMARK    2  A    between atoms: C_2  and  C_3
REMARK    3  A    between atoms: C_3  and  C_4
REMARK    4  A    between atoms: C_4  and  N_5
REMARK    5  A    between atoms: N_5  and  C_6
REMARK    6  A    between atoms: C_8  and  N_23
REMARK    7  A    between atoms: N_10  and  C_16
REMARK    8  A    between atoms: C_16  and  C_17
REMARK    9  A    between atoms: C_24  and  C_26
REMARK   10  A    between atoms: C_26  and  C_27
REMARK                            x       y       z     vdW  Elec       q    Type
REMARK                         _______ _______ _______ _____ _____    ______ ____
ROOT
ATOM      1  C   UNL     1      -3.545  -2.939  -1.069  0.00  0.00    +0.167 C 
ATOM      2  C   UNL     1      -3.916  -4.427  -1.002  0.00  0.00    +0.048 C 
ATOM      3  N   UNL     1      -4.409  -4.822  -2.332  0.00  0.00    -0.292 N 
ATOM      4  C   UNL     1      -3.645  -4.506  -3.416  0.00  0.00    +0.328 C 
ATOM      5  O   UNL     1      -3.733  -5.245  -4.537  0.00  0.00    -0.250 OA
ATOM      6  N   UNL     1      -2.819  -3.477  -3.370  0.00  0.00    -0.126 NA
ATOM      7  C   UNL     1      -2.706  -2.699  -2.298  0.00  0.00    +0.261 C 
ATOM      8  O   UNL     1      -1.911  -1.780  -2.308  0.00  0.00    -0.272 OA
ENDROOT
BRANCH   2   9
ATOM      9  N   UNL     1      -2.731  -5.221  -0.651  0.00  0.00    +0.392 N 
ATOM     10  H   UNL     1      -2.431  -4.984   0.283  0.00  0.00    -0.087 HD
ATOM     11  H   UNL     1      -2.960  -6.203  -0.692  0.00  0.00    -0.087 HD
ATOM     12  H   UNL     1      -1.987  -5.022  -1.304  0.00  0.00    -0.087 HD
ENDBRANCH   2   9
BRANCH   1  13
ATOM     13  N   UNL     1      -2.781  -2.569   0.126  0.00  0.00    -0.290 N 
ATOM     14  C   UNL     1      -3.380  -2.562   1.333  0.00  0.00    +0.221 C 
ATOM     15  O   UNL     1      -4.573  -2.766   1.419  0.00  0.00    -0.275 OA
BRANCH  13  16
ATOM     16  C   UNL     1      -1.367  -2.205   0.008  0.00  0.00    +0.108 C 
BRANCH  16  17
ATOM     17  C   UNL     1      -1.235  -0.683  -0.061  0.00  0.00    +0.019 C 
BRANCH  17  19
ATOM     18  C   UNL     1       0.377   1.223  -0.172  0.00  0.00    +0.004 C 
ATOM     19  C   UNL     1       0.245  -0.300  -0.103  0.00  0.00    -0.002 C 
ENDBRANCH  17  19
ENDBRANCH  16  17
ENDBRANCH  13  16
BRANCH  14  20
ATOM     20  C   UNL     1      -2.568  -2.303   2.576  0.00  0.00    +0.133 C 
BRANCH  20  21
ATOM     21  C   UNL     1      -3.469  -2.350   3.783  0.00  0.00    -0.014 A 
ATOM     22  C   UNL     1      -3.866  -3.547   4.528  0.00  0.00    +0.003 A 
ATOM     23  C   UNL     1      -3.584  -4.909   4.398  0.00  0.00    +0.010 A 
ATOM     24  C   UNL     1      -4.126  -5.801   5.281  0.00  0.00    +0.001 A 
ATOM     25  C   UNL     1      -4.955  -5.364   6.305  0.00  0.00    +0.002 A 
ATOM     26  C   UNL     1      -5.246  -4.025   6.451  0.00  0.00    +0.026 A 
ATOM     27  C   UNL     1      -4.705  -3.100   5.564  0.00  0.00    +0.047 A 
ATOM     28  N   UNL     1      -4.802  -1.732   5.447  0.00  0.00    -0.360 N 
ATOM     29  C   UNL     1      -4.054  -1.302   4.384  0.00  0.00    +0.087 A 
ATOM     30  H   UNL     1      -5.319  -1.157   6.032  0.00  0.00    +0.165 HD
ENDBRANCH  20  21
ENDBRANCH  14  20
ENDBRANCH   1  13
BRANCH   3  31
ATOM     31  C   UNL     1      -5.680  -5.533  -2.486  0.00  0.00    +0.142 C 
BRANCH  31  32
ATOM     32  C   UNL     1      -6.797  -4.536  -2.655  0.00  0.00    -0.030 A 
ATOM     33  C   UNL     1      -7.463  -4.049  -1.546  0.00  0.00    +0.005 A 
ATOM     34  C   UNL     1      -8.487  -3.133  -1.701  0.00  0.00    +0.000 A 
ATOM     35  C   UNL     1      -8.845  -2.705  -2.966  0.00  0.00    +0.000 A 
ATOM     36  C   UNL     1      -8.179  -3.191  -4.075  0.00  0.00    +0.000 A 
ATOM     37  C   UNL     1      -7.152  -4.103  -3.919  0.00  0.00    +0.005 A 
ENDBRANCH  31  32
ENDBRANCH   3  31
TORSDOF 9
