REMARK  Name = ZINC28933232
REMARK  8 active torsions:
REMARK  status: ('A' for Active; 'I' for Inactive)
REMARK    1  A    between atoms: C_1  and  C_2
REMARK    2  A    between atoms: C_2  and  C_3
REMARK    3  A    between atoms: C_6  and  N_9
REMARK    4  A    between atoms: C_19  and  S_20
REMARK    5  A    between atoms: S_20  and  C_21
REMARK    6  A    between atoms: C_21  and  C_22
REMARK    7  A    between atoms: C_24  and  O_25
REMARK    8  A    between atoms: C_34  and  C_36
REMARK                            x       y       z     vdW  Elec       q    Type
REMARK                         _______ _______ _______ _____ _____    ______ ____
ROOT
ATOM      1  N   UNL     1       3.368  -8.659  -1.870  0.00  0.00    -0.255 N 
ATOM      2  C   UNL     1       4.379  -9.515  -1.594  0.00  0.00    +0.267 A 
ATOM      3  O   UNL     1       4.936 -10.139  -2.479  0.00  0.00    -0.267 OA
ATOM      4  C   UNL     1       4.782  -9.662  -0.189  0.00  0.00    +0.065 A 
ATOM      5  C   UNL     1       5.812 -10.519   0.196  0.00  0.00    +0.015 A 
ATOM      6  C   UNL     1       6.146 -10.618   1.518  0.00  0.00    +0.001 A 
ATOM      7  C   UNL     1       5.472  -9.876   2.479  0.00  0.00    +0.002 A 
ATOM      8  C   UNL     1       4.458  -9.029   2.129  0.00  0.00    +0.028 A 
ATOM      9  C   UNL     1       4.092  -8.906   0.786  0.00  0.00    +0.079 A 
ATOM     10  N   UNL     1       3.098  -8.075   0.395  0.00  0.00    -0.223 NA
ATOM     11  C   UNL     1       2.753  -7.964  -0.865  0.00  0.00    +0.177 A 
ENDROOT
BRANCH   1  15
ATOM     12  C   UNL     1       2.118  -8.136  -5.811  0.00  0.00    -0.047 A 
ATOM     13  C   UNL     1       3.359  -7.674  -5.414  0.00  0.00    +0.005 A 
ATOM     14  C   UNL     1       3.776  -7.845  -4.108  0.00  0.00    +0.026 A 
ATOM     15  C   UNL     1       2.948  -8.483  -3.194  0.00  0.00    +0.052 A 
ATOM     16  C   UNL     1       1.704  -8.950  -3.597  0.00  0.00    +0.026 A 
ATOM     17  C   UNL     1       1.290  -8.771  -4.903  0.00  0.00    +0.005 A 
BRANCH  12  19
ATOM     18  C   UNL     1       2.099  -9.152  -8.073  0.00  0.00    +0.009 C 
ATOM     19  C   UNL     1       1.666  -7.947  -7.236  0.00  0.00    +0.032 C 
ENDBRANCH  12  19
ENDBRANCH   1  15
BRANCH  11  20
ATOM     20  S   UNL     1       1.443  -6.864  -1.284  0.00  0.00    -0.083 S 
BRANCH  20  21
ATOM     21  C   UNL     1       1.017  -6.241   0.362  0.00  0.00    +0.113 C 
BRANCH  21  22
ATOM     22  C   UNL     1      -0.116  -5.254   0.248  0.00  0.00    -0.020 A 
ATOM     23  C   UNL     1      -1.409  -5.663   0.324  0.00  0.00    +0.092 A 
ATOM     24  C   UNL     1      -2.451  -4.720   0.214  0.00  0.00    +0.285 A 
ATOM     25  O   UNL     1      -2.203  -3.413   0.036  0.00  0.00    -0.425 OA
ATOM     26  C   UNL     1      -0.942  -2.940  -0.048  0.00  0.00    +0.141 A 
ATOM     27  C   UNL     1       0.147  -3.827   0.052  0.00  0.00    +0.022 A 
ATOM     28  C   UNL     1       1.457  -3.341  -0.034  0.00  0.00    +0.013 A 
ATOM     29  C   UNL     1       1.675  -2.007  -0.221  0.00  0.00    +0.024 A 
ATOM     30  C   UNL     1       0.601  -1.123  -0.315  0.00  0.00    +0.037 A 
ATOM     31  C   UNL     1      -0.703  -1.587  -0.232  0.00  0.00    +0.070 A 
ATOM     32  N   UNL     1       0.841   0.239  -0.500  0.00  0.00    -0.286 N 
ATOM     33  C   UNL     1       0.036   1.150   0.082  0.00  0.00    +0.214 C 
ATOM     34  O   UNL     1      -0.947   0.788   0.693  0.00  0.00    -0.276 OA
ATOM     35  C   UNL     1       0.358   2.619  -0.026  0.00  0.00    +0.109 C 
ATOM     36  H   UNL     1       1.686   0.570  -1.122  0.00  0.00    +0.155 HD
BRANCH  24  37
ATOM     37  O   UNL     1      -3.606  -5.101   0.284  0.00  0.00    -0.480 OA
ATOM     38  H   UNL     1      -4.430  -4.377   0.201  0.00  0.00    +0.295 HD
ENDBRANCH  24  37
ENDBRANCH  21  22
ENDBRANCH  20  21
ENDBRANCH  11  20
TORSDOF 6
