REMARK  Name = ZINC20873423
REMARK  12 active torsions:
REMARK  status: ('A' for Active; 'I' for Inactive)
REMARK    1  A    between atoms: C_1  and  C_2
REMARK    2  A    between atoms: C_2  and  C_4
REMARK    3  A    between atoms: C_2  and  N_14
REMARK    4  A    between atoms: N_14  and  C_15
REMARK    5  A    between atoms: C_15  and  C_16
REMARK    6  A    between atoms: C_21  and  O_22
REMARK    7  A    between atoms: O_22  and  C_23
REMARK    8  A    between atoms: C_23  and  C_24
REMARK    9  A    between atoms: N_26  and  C_27
REMARK   10  A    between atoms: C_27  and  C_28
REMARK   11  A    between atoms: C_27  and  C_29
REMARK   12  A    between atoms: C_27  and  C_30
REMARK                            x       y       z     vdW  Elec       q    Type
REMARK                         _______ _______ _______ _____ _____    ______ ____
ROOT
ATOM      1  C   UNL     1       3.021  -3.954  -3.873  0.00  0.00    -0.021 A 
ATOM      2  C   UNL     1       4.219  -4.634  -3.979  0.00  0.00    +0.025 A 
ATOM      3  C   UNL     1       4.236  -6.017  -3.945  0.00  0.00    +0.041 A 
ATOM      4  C   UNL     1       3.052  -6.722  -3.815  0.00  0.00    +0.023 A 
ATOM      5  C   UNL     1       1.852  -6.046  -3.714  0.00  0.00    +0.047 A 
ATOM      6  C   UNL     1       1.833  -4.659  -3.742  0.00  0.00    +0.123 A 
ATOM      7 CL   UNL     1       5.743  -6.869  -4.072  0.00  0.00    -0.084 Cl
ENDROOT
BRANCH   1   8
ATOM      8  C   UNL     1       3.003  -2.448  -3.905  0.00  0.00    -0.043 C 
BRANCH   8   9
ATOM      9  N   UNL     1       2.890  -1.930  -2.534  0.00  0.00    +0.384 N 
ATOM     10  H   UNL     1       3.750  -2.288  -1.950  0.00  0.00    -0.085 HD
ATOM     11  H   UNL     1       1.959  -2.312  -2.089  0.00  0.00    -0.085 HD
BRANCH   9  13
ATOM     12  C   UNL     1       4.305   0.068  -2.537  0.00  0.00    -0.013 C 
ATOM     13  C   UNL     1       2.870  -0.461  -2.526  0.00  0.00    -0.068 C 
BRANCH  13  14
ATOM     14  C   UNL     1       2.154   0.032  -1.268  0.00  0.00    -0.041 C 
ATOM     15  C   UNL     1       0.718  -0.497  -1.257  0.00  0.00    +0.009 C 
ATOM     16  C   UNL     1       0.002  -0.004   0.002  0.00  0.00    -0.010 C 
ATOM     17  C   UNL     1      -0.019   1.526   0.010  0.00  0.00    +0.007 C 
ATOM     18  C   UNL     1       1.417   2.055  -0.000  0.00  0.00    -0.010 C 
ATOM     19  C   UNL     1       2.133   1.562  -1.259  0.00  0.00    +0.009 C 
ATOM     20  C   UNL     1       2.157   1.548   1.239  0.00  0.00    +0.007 C 
ATOM     21  C   UNL     1       2.178   0.019   1.231  0.00  0.00    -0.010 C 
ATOM     22  C   UNL     1       0.742  -0.511   1.242  0.00  0.00    +0.007 C 
ATOM     23  C   UNL     1       2.894  -0.475  -0.028  0.00  0.00    +0.009 C 
ENDBRANCH  13  14
ENDBRANCH   9  13
ENDBRANCH   8   9
ENDBRANCH   1   8
BRANCH   6  24
ATOM     24  O   UNL     1       0.653  -3.992  -3.642  0.00  0.00    -0.483 OA
BRANCH  24  25
ATOM     25  C   UNL     1      -0.530  -4.783  -3.510  0.00  0.00    +0.324 C 
BRANCH  25  26
ATOM     26  C   UNL     1      -1.731  -3.878  -3.413  0.00  0.00    +0.251 C 
ATOM     27  O   UNL     1      -1.588  -2.674  -3.453  0.00  0.00    -0.272 OA
ATOM     28  N   UNL     1      -2.964  -4.406  -3.281  0.00  0.00    -0.308 N 
ATOM     29  H   UNL     1      -3.094  -5.497  -3.245  0.00  0.00    +0.149 HD
BRANCH  28  30
ATOM     30  C   UNL     1      -4.131  -3.526  -3.187  0.00  0.00    +0.026 C 
ATOM     31  C   UNL     1      -4.228  -2.670  -4.451  0.00  0.00    +0.031 C 
ATOM     32  C   UNL     1      -5.398  -4.372  -3.046  0.00  0.00    +0.031 C 
ATOM     33  C   UNL     1      -3.987  -2.616  -1.965  0.00  0.00    +0.031 C 
ENDBRANCH  28  30
ENDBRANCH  25  26
ENDBRANCH  24  25
ENDBRANCH   6  24
TORSDOF 8
