REMARK  Name = ZINC03034051
REMARK  7 active torsions:
REMARK  status: ('A' for Active; 'I' for Inactive)
REMARK    1  A    between atoms: C_1  and  C_2
REMARK    2  A    between atoms: C_2  and  O_3
REMARK    3  A    between atoms: O_3  and  C_4
REMARK    4  A    between atoms: C_7  and  N_10
REMARK    5  A    between atoms: C_17  and  S_19
REMARK    6  A    between atoms: S_19  and  C_20
REMARK    7  A    between atoms: C_20  and  C_21
REMARK                            x       y       z     vdW  Elec       q    Type
REMARK                         _______ _______ _______ _____ _____    ______ ____
ROOT
ATOM      1  N   UNL     1       2.220   0.769  -0.015  0.00  0.00    -0.282 N 
ATOM      2  C   UNL     1       1.366  -0.304  -0.013  0.00  0.00    +0.161 A 
ATOM      3  C   UNL     1       0.002  -0.004   0.002  0.00  0.00    +0.122 A 
ATOM      4  C   UNL     1      -0.968  -0.997   0.007  0.00  0.00    +0.268 A 
ATOM      5  O   UNL     1      -2.155  -0.714   0.020  0.00  0.00    -0.267 OA
ATOM      6  N   UNL     1      -0.562  -2.290  -0.004  0.00  0.00    -0.301 N 
ATOM      7  H   UNL     1      -1.211  -3.011  -0.002  0.00  0.00    +0.171 HD
ATOM      8  C   UNL     1       0.774  -2.561  -0.018  0.00  0.00    +0.171 A 
ATOM      9  N   UNL     1       1.687  -1.622  -0.022  0.00  0.00    -0.204 NA
ATOM     10  S   UNL     1      -0.022   1.770   0.012  0.00  0.00    -0.055 S 
ATOM     11  C   UNL     1       1.745   2.032  -0.004  0.00  0.00    +0.132 A 
ATOM     12  S   UNL     1       2.614   3.507  -0.005  0.00  0.00    -0.024 S 
ENDROOT
BRANCH   1  16
ATOM     13  C   UNL     1       6.341   0.121  -0.059  0.00  0.00    +0.121 A 
ATOM     14  C   UNL     1       5.724   0.737  -1.139  0.00  0.00    +0.047 A 
ATOM     15  C   UNL     1       4.360   0.952  -1.125  0.00  0.00    +0.030 A 
ATOM     16  C   UNL     1       3.606   0.552  -0.030  0.00  0.00    +0.050 A 
ATOM     17  C   UNL     1       4.224  -0.059   1.053  0.00  0.00    +0.030 A 
ATOM     18  C   UNL     1       5.588  -0.279   1.035  0.00  0.00    +0.047 A 
BRANCH  13  19
ATOM     19  O   UNL     1       7.684  -0.090  -0.073  0.00  0.00    -0.492 OA
BRANCH  19  21
ATOM     20  C   UNL     1       9.762  -0.879   0.874  0.00  0.00    +0.048 C 
ATOM     21  C   UNL     1       8.252  -0.729   1.071  0.00  0.00    +0.225 C 
ENDBRANCH  19  21
ENDBRANCH  13  19
ENDBRANCH   1  16
BRANCH   8  22
ATOM     22  S   UNL     1       1.294  -4.244  -0.032  0.00  0.00    -0.083 S 
BRANCH  22  23
ATOM     23  C   UNL     1       3.090  -4.018  -0.048  0.00  0.00    +0.112 C 
BRANCH  23  24
ATOM     24  C   UNL     1       3.766  -5.365  -0.061  0.00  0.00    -0.036 A 
ATOM     25  C   UNL     1       4.064  -5.977  -1.265  0.00  0.00    +0.004 A 
ATOM     26  C   UNL     1       4.685  -7.212  -1.277  0.00  0.00    +0.001 A 
ATOM     27  C   UNL     1       5.007  -7.836  -0.087  0.00  0.00    +0.015 A 
ATOM     28  C   UNL     1       4.708  -7.225   1.117  0.00  0.00    +0.018 A 
ATOM     29  C   UNL     1       4.092  -5.986   1.129  0.00  0.00    +0.019 A 
ATOM     30 BR   UNL     1       5.149  -8.078   2.746  0.00  0.00    -0.050 Br
ENDBRANCH  23  24
ENDBRANCH  22  23
ENDBRANCH   8  22
TORSDOF 6
