REMARK  Name = ZINC14132406
REMARK  5 active torsions:
REMARK  status: ('A' for Active; 'I' for Inactive)
REMARK    1  A    between atoms: C_1  and  C_2
REMARK    2  A    between atoms: C_18  and  S_19
REMARK    3  A    between atoms: S_19  and  C_20
REMARK    4  A    between atoms: C_20  and  C_22
REMARK    5  A    between atoms: C_20  and  C_23
REMARK                            x       y       z     vdW  Elec       q    Type
REMARK                         _______ _______ _______ _____ _____    ______ ____
ROOT
ATOM      1  C   UNL     1      -7.254   6.231   3.292  0.00  0.00    +0.045 C 
ATOM      2  C   UNL     1      -6.014   6.871   2.722  0.00  0.00    -0.032 A 
ATOM      3  C   UNL     1      -5.995   7.317   1.408  0.00  0.00    +0.008 A 
ATOM      4  C   UNL     1      -4.838   7.904   0.926  0.00  0.00    +0.047 A 
ATOM      5  C   UNL     1      -3.737   8.016   1.767  0.00  0.00    +0.142 A 
ATOM      6  N   UNL     1      -3.794   7.578   3.014  0.00  0.00    -0.237 NA
ATOM      7  C   UNL     1      -4.884   7.019   3.502  0.00  0.00    +0.116 A 
ATOM      8  N   UNL     1      -2.561   8.602   1.292  0.00  0.00    -0.239 N 
ATOM      9  C   UNL     1      -2.386   9.939   1.400  0.00  0.00    +0.268 A 
ATOM     10  O   UNL     1      -3.236  10.648   1.907  0.00  0.00    -0.267 OA
ATOM     11  C   UNL     1      -1.135  10.505   0.880  0.00  0.00    +0.065 A 
ATOM     12  C   UNL     1      -0.863  11.871   0.941  0.00  0.00    +0.015 A 
ATOM     13  C   UNL     1       0.319  12.346   0.441  0.00  0.00    +0.001 A 
ATOM     14  C   UNL     1       1.248  11.482  -0.124  0.00  0.00    +0.002 A 
ATOM     15  C   UNL     1       1.008  10.139  -0.196  0.00  0.00    +0.028 A 
ATOM     16  C   UNL     1      -0.191   9.623   0.305  0.00  0.00    +0.079 A 
ATOM     17  N   UNL     1      -0.469   8.300   0.255  0.00  0.00    -0.223 NA
ATOM     18  C   UNL     1      -1.593   7.818   0.726  0.00  0.00    +0.179 A 
ENDROOT
BRANCH  18  19
ATOM     19  S   UNL     1      -1.873   6.082   0.618  0.00  0.00    -0.075 S 
BRANCH  19  20
ATOM     20  C   UNL     1      -0.338   5.565  -0.189  0.00  0.00    +0.137 C 
ATOM     21  C   UNL     1      -0.276   6.161  -1.597  0.00  0.00    +0.029 C 
BRANCH  20  22
ATOM     22  C   UNL     1      -0.299   4.061  -0.278  0.00  0.00    +0.231 C 
ATOM     23  O   UNL     1      -1.333   3.426  -0.279  0.00  0.00    -0.274 OA
ATOM     24  N   UNL     1       0.884   3.421  -0.357  0.00  0.00    -0.268 N 
ATOM     25  C   UNL     1       0.920   2.029  -0.440  0.00  0.00    +0.143 A 
ATOM     26  C   UNL     1       2.146   1.375  -0.522  0.00  0.00    +0.082 A 
ATOM     27  C   UNL     1       2.167  -0.007  -0.604  0.00  0.00    +0.045 A 
ATOM     28  C   UNL     1       0.957  -0.690  -0.601  0.00  0.00    +0.061 A 
ATOM     29  C   UNL     1      -0.223   0.026  -0.518  0.00  0.00    +0.133 A 
ATOM     30  N   UNL     1      -0.211   1.343  -0.441  0.00  0.00    -0.237 NA
ATOM     31 CL   UNL     1       0.926  -2.422  -0.702  0.00  0.00    -0.082 Cl
ATOM     32 CL   UNL     1       3.627   2.279  -0.521  0.00  0.00    -0.080 Cl
ATOM     33  H   UNL     1       1.711   3.928  -0.357  0.00  0.00    +0.156 HD
ENDBRANCH  20  22
ENDBRANCH  19  20
ENDBRANCH  18  19
TORSDOF 3
