REMARK  Name = ZINC38798944
REMARK  9 active torsions:
REMARK  status: ('A' for Active; 'I' for Inactive)
REMARK    1  A    between atoms: C_1  and  C_2
REMARK    2  A    between atoms: C_2  and  C_4
REMARK    3  A    between atoms: C_2  and  O_15
REMARK    4  A    between atoms: C_4  and  C_6
REMARK    5  A    between atoms: O_15  and  C_16
REMARK    6  A    between atoms: C_16  and  C_18
REMARK    7  A    between atoms: C_18  and  C_20
REMARK    8  A    between atoms: C_18  and  N_27
REMARK    9  A    between atoms: C_20  and  C_21
REMARK                            x       y       z     vdW  Elec       q    Type
REMARK                         _______ _______ _______ _____ _____    ______ ____
ROOT
ATOM      1  C   UNL     1      -1.899  -0.716   1.212  0.00  0.00    +0.329 C 
ATOM      2  O   UNL     1      -1.272  -0.494   2.221  0.00  0.00    -0.249 OA
ENDROOT
BRANCH   1   3
ATOM      3  O   UNL     1      -1.339  -0.499   0.012  0.00  0.00    -0.452 OA
BRANCH   3   5
ATOM      4  C   UNL     1      -0.019   1.526   0.010  0.00  0.00    +0.061 C 
ATOM      5  C   UNL     1       0.002  -0.004   0.002  0.00  0.00    +0.244 C 
BRANCH   5   6
ATOM      6  C   UNL     1       0.707  -0.490  -1.238  0.00  0.00    +0.201 C 
ATOM      7  O   UNL     1       0.062  -0.868  -2.195  0.00  0.00    -0.288 OA
BRANCH   6   8
ATOM      8  C   UNL     1       2.118  -0.506  -1.287  0.00  0.00    +0.027 C 
ATOM      9  C   UNL     1       2.913  -0.913  -2.343  0.00  0.00    +0.006 A 
ATOM     10  C   UNL     1       2.619  -1.414  -3.632  0.00  0.00    +0.010 A 
ATOM     11  C   UNL     1       3.619  -1.741  -4.481  0.00  0.00    +0.001 A 
ATOM     12  C   UNL     1       4.973  -1.605  -4.138  0.00  0.00    +0.002 A 
ATOM     13  C   UNL     1       5.362  -1.136  -2.933  0.00  0.00    +0.026 A 
ATOM     14  C   UNL     1       4.335  -0.756  -1.948  0.00  0.00    +0.043 A 
ATOM     15  N   UNL     1       4.423  -0.286  -0.737  0.00  0.00    -0.380 N 
ATOM     16  C   UNL     1       3.076  -0.075  -0.199  0.00  0.00    +0.152 C 
ATOM     17  H   UNL     1       5.251  -0.101  -0.266  0.00  0.00    +0.160 HD
ENDBRANCH   6   8
ENDBRANCH   5   6
ENDBRANCH   3   5
ENDBRANCH   1   3
BRANCH   1  18
ATOM     18  C   UNL     1      -3.310  -1.237   1.302  0.00  0.00    +0.187 C 
BRANCH  18  19
ATOM     19  N   UNL     1      -3.528  -1.833   2.623  0.00  0.00    -0.286 N 
ATOM     20  C   UNL     1      -3.387  -1.081   3.732  0.00  0.00    +0.298 C 
ATOM     21  O   UNL     1      -3.080   0.091   3.637  0.00  0.00    -0.253 OA
ATOM     22  N   UNL     1      -3.587  -1.629   4.947  0.00  0.00    -0.313 N 
ATOM     23  H   UNL     1      -3.773  -2.768   2.698  0.00  0.00    +0.151 HD
ATOM     24  H   UNL     1      -3.833  -2.564   5.023  0.00  0.00    +0.146 HD
ATOM     25  H   UNL     1      -3.486  -1.088   5.746  0.00  0.00    +0.146 HD
ENDBRANCH  18  19
BRANCH  18  26
ATOM     26  C   UNL     1      -4.294  -0.084   1.094  0.00  0.00    +0.069 C 
BRANCH  26  27
ATOM     27  C   UNL     1      -5.700  -0.624   1.061  0.00  0.00    -0.045 A 
ATOM     28  C   UNL     1      -6.261  -1.020  -0.139  0.00  0.00    +0.004 A 
ATOM     29  C   UNL     1      -7.551  -1.515  -0.169  0.00  0.00    +0.000 A 
ATOM     30  C   UNL     1      -8.281  -1.614   1.001  0.00  0.00    +0.000 A 
ATOM     31  C   UNL     1      -7.720  -1.219   2.201  0.00  0.00    +0.000 A 
ATOM     32  C   UNL     1      -6.428  -0.728   2.232  0.00  0.00    +0.004 A 
ENDBRANCH  26  27
ENDBRANCH  18  26
ENDBRANCH   1  18
TORSDOF 8
