REMARK  Name = ZINC50615092
REMARK  5 active torsions:
REMARK  status: ('A' for Active; 'I' for Inactive)
REMARK    1  A    between atoms: C_2  and  O_10
REMARK    2  A    between atoms: O_10  and  C_11
REMARK    3  A    between atoms: C_11  and  C_12
REMARK    4  A    between atoms: C_12  and  N_13
REMARK    5  A    between atoms: C_15  and  N_18
REMARK                            x       y       z     vdW  Elec       q    Type
REMARK                         _______ _______ _______ _____ _____    ______ ____
ROOT
ATOM      1  O   UNL     1       1.159   3.446   0.009  0.00  0.00    -0.489 OA
ENDROOT
BRANCH   1   3
ATOM      2  C   UNL     1      -0.017   1.378   0.010  0.00  0.00    +0.068 A 
ATOM      3  C   UNL     1       1.175   2.087   0.002  0.00  0.00    +0.140 A 
ATOM      4  C   UNL     1       2.385   1.407  -0.013  0.00  0.00    +0.084 A 
ATOM      5  C   UNL     1       2.400   0.024  -0.021  0.00  0.00    +0.045 A 
ATOM      6  C   UNL     1       1.210  -0.681  -0.014  0.00  0.00    +0.061 A 
ATOM      7  C   UNL     1       0.002  -0.004   0.002  0.00  0.00    +0.063 A 
ATOM      8 CL   UNL     1      -1.490  -0.892   0.012  0.00  0.00    -0.082 Cl
ATOM      9 CL   UNL     1       1.231  -2.417  -0.024  0.00  0.00    -0.082 Cl
ATOM     10 CL   UNL     1       3.879   2.292  -0.023  0.00  0.00    -0.080 Cl
ENDBRANCH   1   3
BRANCH   1  11
ATOM     11  C   UNL     1      -0.122   4.080   0.024  0.00  0.00    +0.252 C 
BRANCH  11  12
ATOM     12  C   UNL     1       0.060   5.599   0.030  0.00  0.00    +0.184 C 
BRANCH  12  13
ATOM     13  N   UNL     1      -1.253   6.248   0.046  0.00  0.00    -0.266 N 
ATOM     14  C   UNL     1      -1.681   7.167   0.952  0.00  0.00    +0.131 A 
ATOM     15  C   UNL     1      -2.948   7.516   0.613  0.00  0.00    +0.063 A 
ATOM     16  C   UNL     1      -3.304   6.789  -0.532  0.00  0.00    +0.157 A 
ATOM     17  N   UNL     1      -2.289   6.036  -0.873  0.00  0.00    -0.178 NA
BRANCH  15  18
ATOM     18  N   UNL     1      -3.762   8.444   1.292  0.00  0.00    -0.356 N 
ATOM     19  H   UNL     1      -3.425   8.899   2.079  0.00  0.00    +0.142 HD
ATOM     20  H   UNL     1      -4.659   8.627   0.972  0.00  0.00    +0.142 HD
ENDBRANCH  15  18
ENDBRANCH  12  13
ENDBRANCH  11  12
ENDBRANCH   1  11
TORSDOF 5
