REMARK  Name = ZINC09511143
REMARK  11 active torsions:
REMARK  status: ('A' for Active; 'I' for Inactive)
REMARK    1  A    between atoms: C_1  and  C_2
REMARK    2  A    between atoms: C_2  and  C_3
REMARK    3  A    between atoms: C_3  and  C_5
REMARK    4  A    between atoms: C_3  and  N_73
REMARK    5  A    between atoms: C_8  and  S_16
REMARK    6  A    between atoms: N_9  and  C_10
REMARK    7  A    between atoms: S_16  and  C_17
REMARK    8  A    between atoms: C_17  and  C_18
REMARK    9  A    between atoms: N_20  and  C_21
REMARK   10  A    between atoms: C_31  and  N_73
REMARK   11  A    between atoms: C_32  and  N_73
REMARK                            x       y       z     vdW  Elec       q    Type
REMARK                         _______ _______ _______ _____ _____    ______ ____
ROOT
ATOM      1  C   UNL     1       1.375   1.305   2.659  0.00  0.00    +0.121 A 
ATOM      2  N   UNL     1       1.891   2.498   2.571  0.00  0.00    -0.135 NA
ATOM      3  N   UNL     1       3.161   2.445   2.762  0.00  0.00    -0.123 NA
ATOM      4  C   UNL     1       3.528   1.203   2.975  0.00  0.00    +0.192 A 
ATOM      5  N   UNL     1       2.400   0.436   2.916  0.00  0.00    -0.304 N 
ENDROOT
BRANCH   5   6
ATOM      6  C   UNL     1       2.306  -1.015   3.091  0.00  0.00    +0.091 C 
ATOM      7  C   UNL     1       2.814  -1.395   4.483  0.00  0.00    +0.025 C 
ATOM      8  C   UNL     1       2.716  -2.910   4.666  0.00  0.00    +0.002 C 
ATOM      9  C   UNL     1       3.569  -3.608   3.605  0.00  0.00    +0.000 C 
ATOM     10  C   UNL     1       3.061  -3.229   2.212  0.00  0.00    +0.002 C 
ATOM     11  C   UNL     1       3.159  -1.713   2.029  0.00  0.00    +0.025 C 
ENDBRANCH   5   6
BRANCH   1  12
ATOM     12  C   UNL     1      -0.080   0.947   2.501  0.00  0.00    +0.000 C 
BRANCH  12  15
ATOM     13  C   UNL     1       0.064   0.920   0.084  0.00  0.00    -0.096 C 
ATOM     14  C   UNL     1      -0.441   2.985   1.244  0.00  0.00    -0.096 C 
ATOM     15  N   UNL     1      -0.621   1.517   1.249  0.00  0.00    +0.383 N 
ATOM     16  H   UNL     1      -1.624   1.304   1.192  0.00  0.00    -0.082 HD
ENDBRANCH  12  15
BRANCH  12  18
ATOM     17  C   UNL     1      -2.328   1.038   3.588  0.00  0.00    +0.002 C 
ATOM     18  C   UNL     1      -0.874   1.506   3.683  0.00  0.00    -0.011 C 
ENDBRANCH  12  18
ENDBRANCH   1  12
BRANCH   4  19
ATOM     19  S   UNL     1       5.167   0.633   3.280  0.00  0.00    -0.077 S 
BRANCH  19  20
ATOM     20  C   UNL     1       6.065   2.202   3.202  0.00  0.00    +0.173 C 
BRANCH  20  21
ATOM     21  C   UNL     1       7.532   1.954   3.441  0.00  0.00    +0.224 C 
ATOM     22  O   UNL     1       7.931   0.827   3.644  0.00  0.00    -0.275 OA
ATOM     23  N   UNL     1       8.401   2.984   3.429  0.00  0.00    -0.309 N 
ATOM     24  H   UNL     1       8.082   3.886   3.267  0.00  0.00    +0.149 HD
BRANCH  23  25
ATOM     25  C   UNL     1       9.827   2.743   3.662  0.00  0.00    +0.035 C 
ATOM     26  C   UNL     1      10.020   2.113   5.043  0.00  0.00    +0.029 C 
ATOM     27  C   UNL     1      11.509   1.861   5.285  0.00  0.00    -0.008 C 
ATOM     28  C   UNL     1      12.268   3.187   5.219  0.00  0.00    +0.007 C 
ATOM     29  C   UNL     1      12.076   3.817   3.838  0.00  0.00    -0.008 C 
ATOM     30  C   UNL     1      10.586   4.069   3.596  0.00  0.00    +0.029 C 
ATOM     31  C   UNL     1      12.614   2.868   2.766  0.00  0.00    +0.007 C 
ATOM     32  C   UNL     1      11.854   1.542   2.831  0.00  0.00    -0.008 C 
ATOM     33  C   UNL     1      12.047   0.912   4.212  0.00  0.00    +0.007 C 
ATOM     34  C   UNL     1      10.365   1.794   2.589  0.00  0.00    +0.029 C 
ENDBRANCH  23  25
ENDBRANCH  20  21
ENDBRANCH  19  20
ENDBRANCH   4  19
TORSDOF 8
