REMARK  Name = ZINC09835775
REMARK  6 active torsions:
REMARK  status: ('A' for Active; 'I' for Inactive)
REMARK    1  A    between atoms: C_1  and  C_2
REMARK    2  A    between atoms: C_2  and  N_3
REMARK    3  A    between atoms: C_14  and  C_16
REMARK    4  A    between atoms: C_16  and  N_17
REMARK    5  A    between atoms: N_17  and  C_18
REMARK    6  A    between atoms: N_21  and  C_22
REMARK                            x       y       z     vdW  Elec       q    Type
REMARK                         _______ _______ _______ _____ _____    ______ ____
ROOT
ATOM      1  N   UNL     1       1.454   3.443   0.008  0.00  0.00    -0.340 N 
ATOM      2  C   UNL     1       1.179   2.087   0.002  0.00  0.00    +0.050 A 
ATOM      3  C   UNL     1      -0.017   1.374   0.010  0.00  0.00    +0.026 A 
ATOM      4  C   UNL     1       0.002  -0.004   0.002  0.00  0.00    +0.002 A 
ATOM      5  C   UNL     1       1.206  -0.693  -0.014  0.00  0.00    +0.001 A 
ATOM      6  C   UNL     1       2.399  -0.004  -0.021  0.00  0.00    +0.010 A 
ATOM      7  C   UNL     1       2.395   1.389  -0.013  0.00  0.00    +0.008 A 
ATOM      8  C   UNL     1       3.462   2.407  -0.018  0.00  0.00    +0.008 A 
ATOM      9  C   UNL     1       2.821   3.655  -0.004  0.00  0.00    +0.050 A 
ATOM     10  C   UNL     1       3.588   4.815  -0.004  0.00  0.00    +0.027 A 
ATOM     11  C   UNL     1       4.964   4.732  -0.017  0.00  0.00    +0.007 A 
ATOM     12  C   UNL     1       5.596   3.499  -0.030  0.00  0.00    -0.029 A 
ATOM     13  C   UNL     1       4.852   2.338  -0.031  0.00  0.00    +0.015 A 
ENDROOT
BRANCH   1  15
ATOM     14  C   UNL     1       0.076   4.880  -1.412  0.00  0.00    +0.027 C 
ATOM     15  C   UNL     1       0.442   4.502   0.024  0.00  0.00    +0.119 C 
ENDBRANCH   1  15
BRANCH  12  16
ATOM     16  C   UNL     1       7.101   3.426  -0.045  0.00  0.00    +0.144 C 
BRANCH  16  17
ATOM     17  N   UNL     1       7.602   3.394   1.331  0.00  0.00    -0.284 N 
ATOM     18  C   UNL     1       7.791   2.111   2.013  0.00  0.00    +0.134 C 
ATOM     19  C   UNL     1       7.888   4.546   1.971  0.00  0.00    +0.303 C 
ATOM     20  O   UNL     1       7.731   5.611   1.406  0.00  0.00    -0.253 OA
ATOM     21  N   UNL     1       8.349   4.516   3.237  0.00  0.00    -0.295 N 
ATOM     22  H   UNL     1       8.474   3.667   3.688  0.00  0.00    +0.151 HD
BRANCH  21  23
ATOM     23  C   UNL     1       8.660   5.768   3.933  0.00  0.00    +0.097 C 
ATOM     24  C   UNL     1      10.101   6.197   3.609  0.00  0.00    +0.046 C 
ATOM     25  C   UNL     1      10.546   7.323   4.573  0.00  0.00    +0.168 C 
ATOM     26  S   UNL     1       9.543   6.985   6.078  0.00  0.00    -0.029 S 
ATOM     27  O   UNL     1       8.674   8.085   6.311  0.00  0.00    -0.174 OA
ATOM     28  O   UNL     1      10.404   6.542   7.118  0.00  0.00    -0.174 OA
ATOM     29  C   UNL     1       8.552   5.556   5.470  0.00  0.00    +0.188 C 
ENDBRANCH  21  23
ENDBRANCH  16  17
ENDBRANCH  12  16
TORSDOF 4
