REMARK  Name = ZINC64515707
REMARK  5 active torsions:
REMARK  status: ('A' for Active; 'I' for Inactive)
REMARK    1  A    between atoms: C_1  and  C_2
REMARK    2  A    between atoms: N_11  and  C_12
REMARK    3  A    between atoms: C_12  and  C_13
REMARK    4  A    between atoms: N_18  and  C_19
REMARK    5  A    between atoms: C_19  and  C_20
REMARK                            x       y       z     vdW  Elec       q    Type
REMARK                         _______ _______ _______ _____ _____    ______ ____
ROOT
ATOM      1  C   UNL     1      -2.035  -4.541   1.174  0.00  0.00    +0.019 C 
ENDROOT
BRANCH   1  12
ATOM      2  C   UNL     1      -0.019   1.526   0.010  0.00  0.00    +0.007 C 
ATOM      3  C   UNL     1       0.002  -0.004   0.002  0.00  0.00    -0.014 C 
ATOM      4  C   UNL     1      -1.433  -0.534   0.013  0.00  0.00    +0.002 C 
ATOM      5  C   UNL     1      -1.413  -2.063   0.005  0.00  0.00    -0.015 C 
ATOM      6  C   UNL     1      -0.673  -2.570   1.245  0.00  0.00    -0.065 C 
ATOM      7  C   UNL     1       0.763  -2.041   1.233  0.00  0.00    -0.024 C 
ATOM      8  C   UNL     1       0.742  -0.511   1.242  0.00  0.00    +0.005 C 
ATOM      9  C   UNL     1       1.498  -2.547   2.477  0.00  0.00    +0.000 C 
ATOM     10  C   UNL     1       1.444  -4.077   2.502  0.00  0.00    -0.018 C 
ATOM     11  C   UNL     1      -0.017  -4.532   2.466  0.00  0.00    -0.078 C 
ATOM     12  N   UNL     1      -0.657  -4.038   1.241  0.00  0.00    +0.387 N 
ATOM     13  H   UNL     1      -0.141  -4.366   0.438  0.00  0.00    -0.081 HD
ENDBRANCH   1  12
BRANCH   1  14
ATOM     14  C   UNL     1      -2.016  -6.043   1.047  0.00  0.00    +0.204 C 
ATOM     15  O   UNL     1      -0.959  -6.635   1.015  0.00  0.00    -0.277 OA
ATOM     16  N   UNL     1      -3.175  -6.727   0.968  0.00  0.00    -0.242 N 
ATOM     17  C   UNL     1      -3.158  -8.070   0.854  0.00  0.00    +0.306 C 
ATOM     18  O   UNL     1      -2.098  -8.664   0.823  0.00  0.00    -0.252 OA
ATOM     19  N   UNL     1      -4.316  -8.754   0.775  0.00  0.00    -0.291 N 
ATOM     20  H   UNL     1      -4.021  -6.253   0.993  0.00  0.00    +0.159 HD
ATOM     21  H   UNL     1      -5.162  -8.280   0.800  0.00  0.00    +0.151 HD
BRANCH  19  22
ATOM     22  C   UNL     1      -4.297 -10.214   0.651  0.00  0.00    +0.219 C 
BRANCH  22  23
ATOM     23  C   UNL     1      -5.733 -10.738   0.581  0.00  0.00    +0.405 C 
ATOM     24  F   UNL     1      -6.378 -10.184  -0.530  0.00  0.00    -0.169 F 
ATOM     25  F   UNL     1      -5.715 -12.132   0.463  0.00  0.00    -0.169 F 
ATOM     26  F   UNL     1      -6.419 -10.377   1.746  0.00  0.00    -0.169 F 
ENDBRANCH  22  23
ENDBRANCH  19  22
ENDBRANCH   1  14
TORSDOF 4
