REMARK  Name = ZINC00827829
REMARK  4 active torsions:
REMARK  status: ('A' for Active; 'I' for Inactive)
REMARK    1  A    between atoms: C_10  and  N_11
REMARK    2  A    between atoms: C_17  and  O_22
REMARK    3  A    between atoms: O_22  and  C_23
REMARK    4  A    between atoms: C_27  and  N_29
REMARK                            x       y       z     vdW  Elec       q    Type
REMARK                         _______ _______ _______ _____ _____    ______ ____
ROOT
ATOM      1  N   UNL     1       4.106   9.380   0.526  0.00  0.00    -0.202 N 
ATOM      2  C   UNL     1       4.652   8.154   0.444  0.00  0.00    +0.258 C 
ATOM      3  O   UNL     1       5.841   7.905   0.466  0.00  0.00    -0.269 OA
ATOM      4  C   UNL     1       3.567   7.161   0.323  0.00  0.00    +0.050 A 
ATOM      5  C   UNL     1       3.529   5.779   0.207  0.00  0.00    +0.017 A 
ATOM      6  C   UNL     1       2.311   5.130   0.115  0.00  0.00    +0.047 A 
ATOM      7  C   UNL     1       1.126   5.854   0.127  0.00  0.00    +0.129 A 
ATOM      8  C   UNL     1       1.151   7.242   0.243  0.00  0.00    +0.060 A 
ATOM      9  C   UNL     1       2.364   7.899   0.341  0.00  0.00    +0.053 A 
ATOM     10  C   UNL     1       2.763   9.317   0.472  0.00  0.00    +0.258 C 
ATOM     11  O   UNL     1       2.005  10.264   0.524  0.00  0.00    -0.269 OA
ENDROOT
BRANCH   1  21
ATOM     12  C   UNL     1       6.093  12.686  -2.732  0.00  0.00    +0.001 A 
ATOM     13  C   UNL     1       5.365  11.506  -2.877  0.00  0.00    +0.001 A 
ATOM     14  C   UNL     1       4.948  10.802  -1.790  0.00  0.00    +0.010 A 
ATOM     15  C   UNL     1       5.253  11.268  -0.501  0.00  0.00    +0.004 A 
ATOM     16  C   UNL     1       5.993  12.467  -0.352  0.00  0.00    -0.016 A 
ATOM     17  C   UNL     1       6.407  13.168  -1.499  0.00  0.00    +0.008 A 
ATOM     18  C   UNL     1       6.300  12.935   0.937  0.00  0.00    +0.008 A 
ATOM     19  C   UNL     1       5.886  12.236   2.030  0.00  0.00    +0.002 A 
ATOM     20  C   UNL     1       5.154  11.060   1.895  0.00  0.00    +0.024 A 
ATOM     21  C   UNL     1       4.837  10.565   0.649  0.00  0.00    +0.052 A 
ENDBRANCH   1  21
BRANCH   7  22
ATOM     22  O   UNL     1      -0.062   5.206   0.030  0.00  0.00    -0.456 OA
BRANCH  22  23
ATOM     23  C   UNL     1      -0.051   3.847   0.046  0.00  0.00    +0.130 A 
ATOM     24  C   UNL     1      -0.409   3.136  -1.091  0.00  0.00    +0.046 A 
ATOM     25  C   UNL     1      -0.398   1.754  -1.076  0.00  0.00    +0.005 A 
ATOM     26  C   UNL     1      -0.031   1.076   0.070  0.00  0.00    +0.023 A 
ATOM     27  C   UNL     1       0.323   1.782   1.213  0.00  0.00    +0.028 A 
ATOM     28  C   UNL     1       0.318   3.170   1.198  0.00  0.00    +0.069 A 
BRANCH  27  29
ATOM     29  N   UNL     1       0.688   1.096   2.374  0.00  0.00    -0.358 N 
ATOM     30  H   UNL     1       0.696   0.126   2.382  0.00  0.00    +0.142 HD
ATOM     31  H   UNL     1       0.935   1.590   3.171  0.00  0.00    +0.142 HD
ENDBRANCH  27  29
ENDBRANCH  22  23
ENDBRANCH   7  22
TORSDOF 4
