REMARK  Name = ZINC16981214
REMARK  11 active torsions:
REMARK  status: ('A' for Active; 'I' for Inactive)
REMARK    1  A    between atoms: C_1  and  C_2
REMARK    2  A    between atoms: C_4  and  C_31
REMARK    3  A    between atoms: C_5  and  N_9
REMARK    4  A    between atoms: C_6  and  C_8
REMARK    5  A    between atoms: C_10  and  C_12
REMARK    6  A    between atoms: C_12  and  C_13
REMARK    7  A    between atoms: C_13  and  C_14
REMARK    8  A    between atoms: C_15  and  C_30
REMARK    9  A    between atoms: C_18  and  C_19
REMARK   10  A    between atoms: C_25  and  C_29
REMARK   11  A    between atoms: C_26  and  C_28
REMARK                            x       y       z     vdW  Elec       q    Type
REMARK                         _______ _______ _______ _____ _____    ______ ____
ROOT
ATOM      1  C   UNL     1      -7.218   1.167  -0.728  0.00  0.00    -0.003 A 
ATOM      2  C   UNL     1      -7.816   0.974  -1.980  0.00  0.00    +0.064 A 
ATOM      3  N   UNL     1      -8.869   0.216  -1.823  0.00  0.00    -0.169 NA
ATOM      4  N   UNL     1      -8.987  -0.094  -0.462  0.00  0.00    -0.204 N 
ATOM      5  C   UNL     1      -7.955   0.506   0.192  0.00  0.00    +0.048 A 
ATOM      6  C   UNL     1      -7.683   0.445   1.673  0.00  0.00    +0.066 C 
ATOM      7  C   UNL     1      -9.976  -0.872   0.115  0.00  0.00    +0.232 A 
ATOM      8  N   UNL     1     -10.947  -1.407  -0.670  0.00  0.00    -0.291 N 
ATOM      9  H   UNL     1     -10.943  -1.244  -1.627  0.00  0.00    +0.172 HD
ATOM     10  C   UNL     1     -11.915  -2.167  -0.116  0.00  0.00    +0.256 A 
ATOM     11  O   UNL     1     -12.794  -2.656  -0.807  0.00  0.00    -0.267 OA
ATOM     12  C   UNL     1     -11.891  -2.385   1.275  0.00  0.00    +0.035 A 
ATOM     13  C   UNL     1     -10.891  -1.821   2.011  0.00  0.00    +0.050 A 
ATOM     14  N   UNL     1      -9.956  -1.083   1.413  0.00  0.00    -0.217 NA
ATOM     15  C   UNL     1     -10.839  -2.037   3.501  0.00  0.00    +0.066 C 
ATOM     16  C   UNL     1     -12.950  -3.226   1.938  0.00  0.00    +0.051 C 
ATOM     17  C   UNL     1      -7.325   1.540  -3.288  0.00  0.00    +0.068 C 
ENDROOT
BRANCH   1  18
ATOM     18  C   UNL     1      -5.977   1.976  -0.454  0.00  0.00    +0.048 C 
BRANCH  18  19
ATOM     19  C   UNL     1      -4.746   1.073  -0.559  0.00  0.00    +0.101 C 
BRANCH  19  21
ATOM     20  N   UNL     1      -2.294   1.291  -0.322  0.00  0.00    -0.285 N 
ATOM     21  C   UNL     1      -3.504   1.882  -0.285  0.00  0.00    +0.218 C 
ATOM     22  O   UNL     1      -3.595   3.064  -0.031  0.00  0.00    -0.275 OA
ATOM     23  H   UNL     1      -2.226   0.331  -0.445  0.00  0.00    +0.155 HD
BRANCH  20  28
ATOM     24  C   UNL     1       2.413   4.408   0.244  0.00  0.00    +0.044 C 
ATOM     25  C   UNL     1       1.161   3.583   0.092  0.00  0.00    -0.050 A 
ATOM     26  C   UNL     1       0.190   3.615   1.076  0.00  0.00    +0.008 A 
ATOM     27  C   UNL     1      -0.958   2.859   0.940  0.00  0.00    -0.029 A 
ATOM     28  C   UNL     1      -1.134   2.062  -0.184  0.00  0.00    +0.039 A 
ATOM     29  C   UNL     1      -0.160   2.038  -1.173  0.00  0.00    -0.029 A 
ATOM     30  C   UNL     1       0.986   2.795  -1.031  0.00  0.00    +0.008 A 
ATOM     31  C   UNL     1      -0.350   1.180  -2.398  0.00  0.00    +0.045 C 
ATOM     32  C   UNL     1      -2.016   2.893   2.013  0.00  0.00    +0.045 C 
ENDBRANCH  20  28
ENDBRANCH  19  21
ENDBRANCH  18  19
ENDBRANCH   1  18
TORSDOF 4
