REMARK  Name = ZINC03190514
REMARK  5 active torsions:
REMARK  status: ('A' for Active; 'I' for Inactive)
REMARK    1  A    between atoms: C_1  and  C_2
REMARK    2  A    between atoms: C_2  and  O_3
REMARK    3  A    between atoms: O_3  and  C_4
REMARK    4  A    between atoms: C_7  and  N_10
REMARK    5  A    between atoms: C_19  and  C_33
REMARK                            x       y       z     vdW  Elec       q    Type
REMARK                         _______ _______ _______ _____ _____    ______ ____
ROOT
ATOM      1  N   UNL     1      -2.006  -5.994  -0.129  0.00  0.00    -0.210 N 
ATOM      2  C   UNL     1      -0.951  -6.877  -0.106  0.00  0.00    +0.231 C 
ATOM      3  O   UNL     1       0.208  -6.637   0.155  0.00  0.00    -0.274 OA
ATOM      4  C   UNL     1      -1.540  -8.181  -0.468  0.00  0.00    +0.101 C 
ATOM      5  C   UNL     1      -2.935  -8.011   0.183  0.00  0.00    +0.110 C 
ATOM      6  C   UNL     1      -3.232  -6.619  -0.100  0.00  0.00    +0.232 C 
ATOM      7  O   UNL     1      -4.322  -6.117  -0.275  0.00  0.00    -0.274 OA
ATOM      8  C   UNL     1      -3.649  -9.297   0.220  0.00  0.00    +0.088 C 
ATOM      9  C   UNL     1      -3.279 -10.169  -0.962  0.00  0.00    -0.026 A 
ATOM     10  C   UNL     1      -4.172 -10.737  -1.828  0.00  0.00    +0.005 A 
ATOM     11  C   UNL     1      -3.696 -11.555  -2.843  0.00  0.00    +0.000 A 
ATOM     12  C   UNL     1      -2.342 -11.799  -2.979  0.00  0.00    +0.000 A 
ATOM     13  C   UNL     1      -1.434 -11.206  -2.108  0.00  0.00    +0.004 A 
ATOM     14  C   UNL     1      -1.909 -10.389  -1.131  0.00  0.00    -0.035 A 
ATOM     15  C   UNL     1      -1.026  -9.556  -0.144  0.00  0.00    +0.062 C 
ATOM     16  C   UNL     1      -1.556 -10.021   1.210  0.00  0.00    -0.035 A 
ATOM     17  C   UNL     1      -2.918  -9.975   1.386  0.00  0.00    -0.026 A 
ATOM     18  C   UNL     1      -3.498 -10.451   2.518  0.00  0.00    +0.005 A 
ATOM     19  C   UNL     1      -2.680 -10.986   3.509  0.00  0.00    +0.000 A 
ATOM     20  C   UNL     1      -1.310 -11.024   3.331  0.00  0.00    +0.000 A 
ATOM     21  C   UNL     1      -0.760 -10.508   2.211  0.00  0.00    +0.004 A 
ENDROOT
BRANCH   1  25
ATOM     22  C   UNL     1      -1.536  -1.850  -0.255  0.00  0.00    +0.121 A 
ATOM     23  C   UNL     1      -0.420  -2.674  -0.240  0.00  0.00    +0.047 A 
ATOM     24  C   UNL     1      -0.576  -4.046  -0.198  0.00  0.00    +0.027 A 
ATOM     25  C   UNL     1      -1.848  -4.600  -0.171  0.00  0.00    +0.044 A 
ATOM     26  C   UNL     1      -2.964  -3.775  -0.186  0.00  0.00    +0.027 A 
ATOM     27  C   UNL     1      -2.808  -2.403  -0.223  0.00  0.00    +0.047 A 
BRANCH  22  28
ATOM     28  O   UNL     1      -1.383  -0.500  -0.296  0.00  0.00    -0.492 OA
BRANCH  28  30
ATOM     29  C   UNL     1      -0.073   1.530  -0.372  0.00  0.00    +0.048 C 
ATOM     30  C   UNL     1      -0.045   0.001  -0.328  0.00  0.00    +0.225 C 
ENDBRANCH  28  30
ENDBRANCH  22  28
ENDBRANCH   1  25
BRANCH   8  31
ATOM     31  C   UNL     1      -5.133  -9.151   0.434  0.00  0.00    +0.240 C 
ATOM     32  O   UNL     1      -5.604  -8.067   0.681  0.00  0.00    -0.300 OA
ENDBRANCH   8  31
TORSDOF 4
