REMARK  Name = ZINC38676828
REMARK  8 active torsions:
REMARK  status: ('A' for Active; 'I' for Inactive)
REMARK    1  A    between atoms: C_1  and  C_2
REMARK    2  A    between atoms: C_2  and  C_3
REMARK    3  A    between atoms: C_6  and  C_9
REMARK    4  A    between atoms: C_14  and  O_23
REMARK    5  A    between atoms: C_18  and  N_22
REMARK    6  A    between atoms: C_19  and  C_20
REMARK    7  A    between atoms: O_23  and  C_24
REMARK    8  A    between atoms: C_24  and  C_26
REMARK                            x       y       z     vdW  Elec       q    Type
REMARK                         _______ _______ _______ _____ _____    ______ ____
ROOT
ATOM      1  C   UNL     1       2.748  -1.891  -4.708  0.00  0.00    +0.098 C 
ATOM      2  C   UNL     1       3.773  -0.873  -5.132  0.00  0.00    +0.008 A 
ATOM      3  C   UNL     1       3.373   0.237  -5.854  0.00  0.00    +0.012 A 
ATOM      4  C   UNL     1       4.300   1.180  -6.252  0.00  0.00    +0.047 A 
ATOM      5  C   UNL     1       5.639   1.016  -5.928  0.00  0.00    +0.135 A 
ATOM      6  C   UNL     1       6.044  -0.095  -5.205  0.00  0.00    +0.093 A 
ATOM      7  C   UNL     1       5.110  -1.042  -4.805  0.00  0.00    +0.138 A 
ATOM      8  O   UNL     1       5.522  -2.124  -4.099  0.00  0.00    -0.441 OA
ATOM      9  C   UNL     1       4.746  -3.219  -4.036  0.00  0.00    +0.199 C 
ATOM     10  C   UNL     1       3.424  -3.173  -4.312  0.00  0.00    +0.098 C 
ENDROOT
BRANCH   1  14
ATOM     11  C   UNL     1       0.541  -0.373  -1.379  0.00  0.00    -0.048 A 
ATOM     12  C   UNL     1      -0.113  -0.692  -2.555  0.00  0.00    +0.004 A 
ATOM     13  C   UNL     1       0.601  -1.183  -3.632  0.00  0.00    +0.005 A 
ATOM     14  C   UNL     1       1.969  -1.355  -3.534  0.00  0.00    -0.035 A 
ATOM     15  C   UNL     1       2.623  -1.035  -2.359  0.00  0.00    +0.005 A 
ATOM     16  C   UNL     1       1.910  -0.540  -1.283  0.00  0.00    +0.004 A 
BRANCH  11  18
ATOM     17  C   UNL     1      -0.303   1.688  -0.290  0.00  0.00    +0.009 C 
ATOM     18  C   UNL     1      -0.237   0.162  -0.205  0.00  0.00    +0.032 C 
ENDBRANCH  11  18
ENDBRANCH   1  14
BRANCH   9  19
ATOM     19  N   UNL     1       5.313  -4.417  -3.681  0.00  0.00    -0.328 N 
ATOM     20  H   UNL     1       6.260  -4.465  -3.479  0.00  0.00    +0.145 HD
ATOM     21  H   UNL     1       4.766  -5.216  -3.631  0.00  0.00    +0.145 HD
ENDBRANCH   9  19
BRANCH  10  22
ATOM     22  C   UNL     1       2.652  -4.376  -4.226  0.00  0.00    +0.101 C 
ATOM     23  N   UNL     1       2.040  -5.330  -4.157  0.00  0.00    -0.191 NA
ENDBRANCH  10  22
BRANCH   5  24
ATOM     24  O   UNL     1       6.553   1.943  -6.319  0.00  0.00    -0.422 OA
BRANCH  24  25
ATOM     25  C   UNL     1       7.444   1.592  -7.267  0.00  0.00    +0.346 C 
ATOM     26  O   UNL     1       7.351   0.513  -7.819  0.00  0.00    -0.244 OA
BRANCH  25  27
ATOM     27  C   UNL     1       8.534   2.518  -7.634  0.00  0.00    +0.078 A 
ATOM     28  C   UNL     1       8.648   3.756  -6.997  0.00  0.00    +0.016 A 
ATOM     29  C   UNL     1       9.668   4.616  -7.345  0.00  0.00    +0.001 A 
ATOM     30  C   UNL     1      10.579   4.255  -8.323  0.00  0.00    +0.001 A 
ATOM     31  C   UNL     1      10.473   3.032  -8.959  0.00  0.00    +0.021 A 
ATOM     32  C   UNL     1       9.461   2.157  -8.616  0.00  0.00    +0.055 A 
ATOM     33 CL   UNL     1       9.334   0.618  -9.409  0.00  0.00    -0.083 Cl
ENDBRANCH  25  27
ENDBRANCH  24  25
ENDBRANCH   5  24
TORSDOF 7
