REMARK  Name = ZINC39533824
REMARK  7 active torsions:
REMARK  status: ('A' for Active; 'I' for Inactive)
REMARK    1  A    between atoms: C_4  and  C_7
REMARK    2  A    between atoms: C_7  and  N_8
REMARK    3  A    between atoms: N_8  and  C_9
REMARK    4  A    between atoms: C_9  and  C_10
REMARK    5  A    between atoms: C_10  and  C_12
REMARK    6  A    between atoms: C_10  and  N_24
REMARK    7  A    between atoms: C_15  and  C_18
REMARK                            x       y       z     vdW  Elec       q    Type
REMARK                         _______ _______ _______ _____ _____    ______ ____
ROOT
ATOM      1  C   UNL     1       5.739  -1.909   2.844  0.00  0.00    -0.023 C 
ENDROOT
BRANCH   1   2
ATOM      2  N   UNL     1       5.652  -0.637   3.574  0.00  0.00    +0.387 N 
ATOM      3  C   UNL     1       6.062  -0.844   4.969  0.00  0.00    -0.062 C 
ATOM      4  C   UNL     1       5.990   0.484   5.724  0.00  0.00    +0.063 C 
ATOM      5  N   UNL     1       4.615   1.000   5.671  0.00  0.00    -0.308 NA
ATOM      6  C   UNL     1       4.182   1.189   4.280  0.00  0.00    +0.100 C 
ATOM      7  C   UNL     1       4.269  -0.145   3.536  0.00  0.00    -0.048 C 
ATOM      8  I   UNL     1       2.140   1.901   4.250  0.00  0.00    -0.067 I 
ATOM      9  H   UNL     1       3.981   0.393   6.168  0.00  0.00    +0.123 HD
ATOM     10  H   UNL     1       6.262   0.041   3.141  0.00  0.00    -0.081 HD
ENDBRANCH   1   2
BRANCH   1  11
ATOM     11  C   UNL     1       7.151  -2.432   2.912  0.00  0.00    -0.060 A 
ATOM     12  C   UNL     1       8.216  -1.557   2.801  0.00  0.00    +0.002 A 
ATOM     13  C   UNL     1       9.511  -2.030   2.864  0.00  0.00    +0.009 A 
ATOM     14  C   UNL     1       9.745  -3.393   3.038  0.00  0.00    -0.018 A 
ATOM     15  C   UNL     1       8.668  -4.270   3.149  0.00  0.00    +0.009 A 
ATOM     16  C   UNL     1       7.377  -3.785   3.091  0.00  0.00    +0.002 A 
BRANCH  14  17
ATOM     17  C   UNL     1      11.135  -3.908   3.105  0.00  0.00    -0.018 A 
ATOM     18  C   UNL     1      12.211  -3.029   2.999  0.00  0.00    +0.008 A 
ATOM     19  C   UNL     1      13.502  -3.514   3.062  0.00  0.00    +0.001 A 
ATOM     20  C   UNL     1      13.728  -4.868   3.230  0.00  0.00    +0.000 A 
ATOM     21  C   UNL     1      12.663  -5.744   3.335  0.00  0.00    +0.001 A 
ATOM     22  C   UNL     1      11.368  -5.270   3.279  0.00  0.00    +0.008 A 
ENDBRANCH  14  17
ENDBRANCH   1  11
BRANCH   1  23
ATOM     23  C   UNL     1       5.348  -1.686   1.382  0.00  0.00    +0.070 C 
BRANCH  23  24
ATOM     24  N   UNL     1       5.354  -2.972   0.672  0.00  0.00    -0.313 NA
ATOM     25  H   UNL     1       4.804  -3.660   1.165  0.00  0.00    +0.122 HD
BRANCH  24  26
ATOM     26  C   UNL     1       4.880  -2.813  -0.710  0.00  0.00    +0.116 C 
BRANCH  26  30
ATOM     27  C   UNL     1       4.934  -6.602  -2.681  0.00  0.00    +0.000 A 
ATOM     28  C   UNL     1       3.803  -6.193  -2.000  0.00  0.00    +0.000 A 
ATOM     29  C   UNL     1       3.785  -4.967  -1.362  0.00  0.00    +0.005 A 
ATOM     30  C   UNL     1       4.899  -4.150  -1.405  0.00  0.00    -0.034 A 
ATOM     31  C   UNL     1       6.031  -4.559  -2.085  0.00  0.00    +0.005 A 
ATOM     32  C   UNL     1       6.048  -5.785  -2.724  0.00  0.00    +0.000 A 
ENDBRANCH  26  30
ENDBRANCH  24  26
ENDBRANCH  23  24
ENDBRANCH   1  23
TORSDOF 7
