REMARK  Name = ZINC40003689
REMARK  13 active torsions:
REMARK  status: ('A' for Active; 'I' for Inactive)
REMARK    1  A    between atoms: C_1  and  C_2
REMARK    2  A    between atoms: C_9  and  C_35
REMARK    3  A    between atoms: C_10  and  C_11
REMARK    4  A    between atoms: C_11  and  C_13
REMARK    5  A    between atoms: N_17  and  C_29
REMARK    6  A    between atoms: C_18  and  C_20
REMARK    7  A    between atoms: C_23  and  O_28
REMARK    8  A    between atoms: C_24  and  O_26
REMARK    9  A    between atoms: O_26  and  C_27
REMARK   10  A    between atoms: C_29  and  C_30
REMARK   11  A    between atoms: C_30  and  N_31
REMARK   12  A    between atoms: N_31  and  C_32
REMARK   13  A    between atoms: N_31  and  C_33
REMARK                            x       y       z     vdW  Elec       q    Type
REMARK                         _______ _______ _______ _____ _____    ______ ____
ROOT
ATOM      1  C   UNL     1       0.159  -3.599   4.237  0.00  0.00    +0.078 C 
ATOM      2  C   UNL     1       0.139  -4.748   4.950  0.00  0.00    +0.249 C 
ATOM      3  C   UNL     1       0.231  -4.430   6.388  0.00  0.00    +0.288 C 
ATOM      4  O   UNL     1       0.237  -5.250   7.284  0.00  0.00    -0.266 OA
ATOM      5  N   UNL     1       0.307  -3.098   6.560  0.00  0.00    -0.285 N 
ATOM      6  C   UNL     1       0.275  -2.470   5.234  0.00  0.00    +0.145 C 
ATOM      7  O   UNL     1       0.047  -5.994   4.427  0.00  0.00    -0.282 OA
ENDROOT
BRANCH   6   8
ATOM      8  C   UNL     1      -0.920  -1.558   5.124  0.00  0.00    -0.019 A 
ATOM      9  C   UNL     1      -2.145  -1.963   5.620  0.00  0.00    +0.009 A 
ATOM     10  C   UNL     1      -3.244  -1.130   5.522  0.00  0.00    +0.049 A 
ATOM     11  C   UNL     1      -3.119   0.114   4.927  0.00  0.00    +0.158 A 
ATOM     12  C   UNL     1      -1.886   0.523   4.428  0.00  0.00    +0.162 A 
ATOM     13  C   UNL     1      -0.787  -0.315   4.534  0.00  0.00    +0.055 A 
BRANCH  12  14
ATOM     14  O   UNL     1      -1.758   1.744   3.843  0.00  0.00    -0.491 OA
ATOM     15  C   UNL     1      -0.490   2.056   3.263  0.00  0.00    +0.277 C 
ENDBRANCH  12  14
BRANCH  11  16
ATOM     16  O   UNL     1      -4.199   0.935   4.829  0.00  0.00    -0.503 OA
ATOM     17  H   UNL     1      -4.313   1.527   5.585  0.00  0.00    +0.292 HD
ENDBRANCH  11  16
ENDBRANCH   6   8
BRANCH   1  18
ATOM     18  C   UNL     1       0.089  -3.474   2.776  0.00  0.00    +0.213 C 
ATOM     19  O   UNL     1      -0.995  -3.395   2.222  0.00  0.00    -0.285 OA
BRANCH  18  29
ATOM     20  C   UNL     1       4.578  -3.226  -1.368  0.00  0.00    +0.047 C 
ATOM     21  C   UNL     1       3.115  -3.197  -1.010  0.00  0.00    -0.008 A 
ATOM     22  C   UNL     1       2.171  -3.046  -1.983  0.00  0.00    +0.008 A 
ATOM     23  C   UNL     1       0.814  -3.022  -1.634  0.00  0.00    +0.018 A 
ATOM     24  C   UNL     1       0.444  -3.148  -0.338  0.00  0.00    +0.093 A 
ATOM     25  N   UNL     1       1.379  -3.299   0.637  0.00  0.00    -0.296 N 
ATOM     26  C   UNL     1       2.709  -3.333   0.329  0.00  0.00    +0.141 A 
ATOM     27  N   UNL     1       3.404  -3.496   1.455  0.00  0.00    -0.232 NA
ATOM     28  C   UNL     1       2.579  -3.576   2.484  0.00  0.00    +0.068 A 
ATOM     29  C   UNL     1       1.280  -3.446   2.009  0.00  0.00    +0.116 A 
ATOM     30  C   UNL     1       2.978  -3.761   3.925  0.00  0.00    +0.068 C 
ENDBRANCH  18  29
ENDBRANCH   1  18
BRANCH   5  31
ATOM     31  C   UNL     1       0.411  -2.398   7.843  0.00  0.00    +0.090 C 
BRANCH  31  32
ATOM     32  C   UNL     1       1.885  -2.227   8.213  0.00  0.00    -0.060 C 
BRANCH  32  33
ATOM     33  N   UNL     1       1.989  -1.526   9.500  0.00  0.00    +0.377 N 
ATOM     34  C   UNL     1       1.416  -2.364  10.562  0.00  0.00    -0.097 C 
ATOM     35  C   UNL     1       3.402  -1.255   9.798  0.00  0.00    -0.097 C 
ATOM     36  H   UNL     1       1.483  -0.654   9.450  0.00  0.00    -0.083 HD
ENDBRANCH  32  33
ENDBRANCH  31  32
ENDBRANCH   5  31
TORSDOF 8
