REMARK  Name = ZINC28292787
REMARK  12 active torsions:
REMARK  status: ('A' for Active; 'I' for Inactive)
REMARK    1  A    between atoms: C_1  and  C_2
REMARK    2  A    between atoms: C_2  and  C_3
REMARK    3  A    between atoms: C_2  and  C_4
REMARK    4  A    between atoms: C_2  and  C_5
REMARK    5  A    between atoms: C_8  and  C_11
REMARK    6  A    between atoms: C_11  and  C_13
REMARK    7  A    between atoms: C_11  and  N_32
REMARK    8  A    between atoms: C_13  and  N_14
REMARK    9  A    between atoms: C_15  and  C_17
REMARK   10  A    between atoms: N_22  and  C_24
REMARK   11  A    between atoms: C_27  and  O_30
REMARK   12  A    between atoms: O_30  and  C_31
REMARK                            x       y       z     vdW  Elec       q    Type
REMARK                         _______ _______ _______ _____ _____    ______ ____
ROOT
ATOM      1  N   UNL     1      -1.897   1.373   2.257  0.00  0.00    -0.311 N 
ATOM      2  C   UNL     1      -2.259   1.538   3.545  0.00  0.00    +0.268 C 
ATOM      3  O   UNL     1      -2.319   2.654   4.022  0.00  0.00    -0.268 OA
ATOM      4  H   UNL     1      -1.843   0.363   1.826  0.00  0.00    +0.149 HD
ENDROOT
BRANCH   2   5
ATOM      5  C   UNL     1      -2.582   0.361   4.377  0.00  0.00    +0.192 A 
ATOM      6  C   UNL     1      -2.972   0.524   5.786  0.00  0.00    +0.212 A 
ATOM      7  O   UNL     1      -3.040   1.628   6.304  0.00  0.00    -0.285 OA
ATOM      8  C   UNL     1      -3.271  -0.655   6.517  0.00  0.00    +0.073 A 
ATOM      9  C   UNL     1      -3.168  -1.841   5.872  0.00  0.00    +0.117 A 
ATOM     10  N   UNL     1      -2.795  -1.894   4.570  0.00  0.00    -0.239 N 
ATOM     11  N   UNL     1      -2.521  -0.854   3.873  0.00  0.00    -0.158 NA
BRANCH  10  12
ATOM     12  C   UNL     1      -2.704  -3.148   3.955  0.00  0.00    +0.066 A 
ATOM     13  C   UNL     1      -2.332  -3.242   2.620  0.00  0.00    +0.031 A 
ATOM     14  C   UNL     1      -2.236  -4.480   2.017  0.00  0.00    +0.048 A 
ATOM     15  C   UNL     1      -2.525  -5.629   2.739  0.00  0.00    +0.120 A 
ATOM     16  C   UNL     1      -2.903  -5.535   4.071  0.00  0.00    +0.048 A 
ATOM     17  C   UNL     1      -2.993  -4.299   4.678  0.00  0.00    +0.031 A 
BRANCH  15  18
ATOM     18  O   UNL     1      -2.437  -6.847   2.142  0.00  0.00    -0.495 OA
ATOM     19  C   UNL     1      -2.042  -6.869   0.769  0.00  0.00    +0.277 C 
ENDBRANCH  15  18
ENDBRANCH  10  12
ENDBRANCH   2   5
BRANCH   1  20
ATOM     20  C   UNL     1      -1.577   2.540   1.432  0.00  0.00    +0.094 C 
BRANCH  20  21
ATOM     21  C   UNL     1      -1.315   2.091  -0.007  0.00  0.00    -0.020 C 
BRANCH  21  25
ATOM     22  C   UNL     1       2.199  -0.335  -0.137  0.00  0.00    -0.042 A 
ATOM     23  C   UNL     1       0.950  -0.927  -0.136  0.00  0.00    +0.004 A 
ATOM     24  C   UNL     1      -0.187  -0.142  -0.092  0.00  0.00    +0.002 A 
ATOM     25  C   UNL     1      -0.075   1.235  -0.049  0.00  0.00    -0.059 A 
ATOM     26  C   UNL     1       1.174   1.827  -0.049  0.00  0.00    +0.002 A 
ATOM     27  C   UNL     1       2.311   1.042  -0.093  0.00  0.00    +0.004 A 
BRANCH  22  29
ATOM     28  C   UNL     1       3.428  -2.032  -1.462  0.00  0.00    +0.015 C 
ATOM     29  C   UNL     1       3.438  -1.191  -0.184  0.00  0.00    -0.013 C 
ATOM     30  C   UNL     1       4.678  -0.294  -0.174  0.00  0.00    +0.015 C 
ATOM     31  C   UNL     1       3.467  -2.115   1.035  0.00  0.00    +0.015 C 
ENDBRANCH  22  29
ENDBRANCH  21  25
BRANCH  21  32
ATOM     32  N   UNL     1      -1.124   3.270  -0.862  0.00  0.00    +0.385 N 
ATOM     33  C   UNL     1      -0.865   2.872  -2.269  0.00  0.00    -0.078 C 
ATOM     34  C   UNL     1      -1.215   4.152  -3.070  0.00  0.00    -0.020 C 
ATOM     35  C   UNL     1      -2.437   4.713  -2.308  0.00  0.00    -0.020 C 
ATOM     36  C   UNL     1      -2.346   4.103  -0.897  0.00  0.00    -0.078 C 
ATOM     37  H   UNL     1      -0.275   3.820  -0.429  0.00  0.00    -0.081 HD
ENDBRANCH  21  32
ENDBRANCH  20  21
ENDBRANCH   1  20
TORSDOF 8
