REMARK  Name = ZINC12764925
REMARK  15 active torsions:
REMARK  status: ('A' for Active; 'I' for Inactive)
REMARK    1  A    between atoms: C_1  and  C_2
REMARK    2  A    between atoms: C_2  and  C_4
REMARK    3  A    between atoms: C_2  and  S_16
REMARK    4  A    between atoms: N_6  and  C_7
REMARK    5  A    between atoms: C_7  and  C_8
REMARK    6  A    between atoms: C_8  and  N_9
REMARK    7  A    between atoms: N_9  and  C_10
REMARK    8  A    between atoms: N_9  and  C_13
REMARK    9  A    between atoms: C_10  and  C_11
REMARK   10  A    between atoms: C_10  and  C_12
REMARK   11  A    between atoms: C_13  and  C_14
REMARK   12  A    between atoms: C_13  and  C_15
REMARK   13  A    between atoms: S_16  and  C_17
REMARK   14  A    between atoms: C_17  and  C_18
REMARK   15  A    between atoms: C_24  and  C_29
REMARK                            x       y       z     vdW  Elec       q    Type
REMARK                         _______ _______ _______ _____ _____    ______ ____
ROOT
ATOM      1  C   UNL     1       2.715  -1.712   1.820  0.00  0.00    +0.144 C 
ENDROOT
BRANCH   1   2
ATOM      2  C   UNL     1       3.448  -2.451   2.910  0.00  0.00    +0.121 A 
ATOM      3  N   UNL     1       4.781  -2.249   3.072  0.00  0.00    -0.310 N 
ATOM      4  H   UNL     1       5.244  -1.632   2.483  0.00  0.00    +0.170 HD
ATOM      5  C   UNL     1       5.473  -2.888   4.033  0.00  0.00    +0.260 A 
ATOM      6  O   UNL     1       6.670  -2.696   4.166  0.00  0.00    -0.267 OA
ATOM      7  C   UNL     1       4.783  -3.797   4.897  0.00  0.00    +0.080 A 
ATOM      8  C   UNL     1       5.303  -4.598   5.999  0.00  0.00    +0.004 A 
ATOM      9  C   UNL     1       4.449  -5.396   6.684  0.00  0.00    +0.056 A 
ATOM     10  S   UNL     1       2.884  -5.113   5.880  0.00  0.00    -0.076 S 
ATOM     11  C   UNL     1       3.407  -3.941   4.654  0.00  0.00    +0.116 A 
ATOM     12  N   UNL     1       2.790  -3.269   3.686  0.00  0.00    -0.226 NA
BRANCH   8  13
ATOM     13  C   UNL     1       6.739  -4.540   6.362  0.00  0.00    -0.017 A 
ATOM     14  C   UNL     1       7.716  -4.687   5.378  0.00  0.00    +0.008 A 
ATOM     15  C   UNL     1       9.052  -4.632   5.722  0.00  0.00    +0.001 A 
ATOM     16  C   UNL     1       9.422  -4.432   7.040  0.00  0.00    +0.000 A 
ATOM     17  C   UNL     1       8.457  -4.287   8.020  0.00  0.00    +0.001 A 
ATOM     18  C   UNL     1       7.118  -4.334   7.688  0.00  0.00    +0.008 A 
ENDBRANCH   8  13
ENDBRANCH   1   2
BRANCH   1  19
ATOM     19  S   UNL     1       0.961  -2.174   1.851  0.00  0.00    -0.141 S 
BRANCH  19  21
ATOM     20  C   UNL     1       0.327   0.279   0.822  0.00  0.00    +0.029 C 
ATOM     21  C   UNL     1       0.230  -1.213   0.498  0.00  0.00    +0.129 C 
BRANCH  21  22
ATOM     22  C   UNL     1      -1.218  -1.599   0.333  0.00  0.00    +0.226 C 
ATOM     23  O   UNL     1      -1.834  -2.058   1.272  0.00  0.00    -0.275 OA
ATOM     24  N   UNL     1      -1.828  -1.433  -0.857  0.00  0.00    -0.316 N 
ATOM     25  H   UNL     1      -1.336  -1.065  -1.607  0.00  0.00    +0.149 HD
BRANCH  24  26
ATOM     26  C   UNL     1      -3.236  -1.807  -1.017  0.00  0.00    +0.086 C 
BRANCH  26  27
ATOM     27  C   UNL     1      -3.680  -1.520  -2.453  0.00  0.00    -0.059 C 
BRANCH  27  28
ATOM     28  N   UNL     1      -5.044  -2.025  -2.653  0.00  0.00    +0.384 N 
ATOM     29  H   UNL     1      -5.082  -3.001  -2.401  0.00  0.00    -0.081 HD
BRANCH  28  30
ATOM     30  C   UNL     1      -5.977  -1.265  -1.810  0.00  0.00    -0.074 C 
ATOM     31  C   UNL     1      -6.382   0.023  -2.530  0.00  0.00    -0.014 C 
ATOM     32  C   UNL     1      -7.223  -2.111  -1.538  0.00  0.00    -0.014 C 
ENDBRANCH  28  30
BRANCH  28  33
ATOM     33  C   UNL     1      -5.422  -1.869  -4.064  0.00  0.00    -0.074 C 
ATOM     34  C   UNL     1      -4.370  -2.538  -4.951  0.00  0.00    -0.014 C 
ATOM     35  C   UNL     1      -6.783  -2.525  -4.304  0.00  0.00    -0.014 C 
ENDBRANCH  28  33
ENDBRANCH  27  28
ENDBRANCH  26  27
ENDBRANCH  24  26
ENDBRANCH  21  22
ENDBRANCH  19  21
ENDBRANCH   1  19
TORSDOF 10
