REMARK  Name = ZINC09576787
REMARK  9 active torsions:
REMARK  status: ('A' for Active; 'I' for Inactive)
REMARK    1  A    between atoms: C_1  and  C_2
REMARK    2  A    between atoms: C_10  and  C_12
REMARK    3  A    between atoms: C_15  and  O_19
REMARK    4  A    between atoms: C_16  and  O_18
REMARK    5  A    between atoms: C_23  and  C_26
REMARK    6  A    between atoms: C_29  and  O_34
REMARK    7  A    between atoms: C_30  and  O_32
REMARK    8  A    between atoms: O_32  and  C_33
REMARK    9  A    between atoms: O_34  and  C_35
REMARK                            x       y       z     vdW  Elec       q    Type
REMARK                         _______ _______ _______ _____ _____    ______ ____
ROOT
ATOM      1  C   UNL     1       2.088   0.198   3.156  0.00  0.00    +0.069 C 
ATOM      2  C   UNL     1       3.146   1.079   2.543  0.00  0.00    +0.087 A 
ATOM      3  C   UNL     1       3.281   1.412   1.198  0.00  0.00    +0.049 A 
ATOM      4  C   UNL     1       4.385   2.225   1.155  0.00  0.00    +0.226 A 
ATOM      5  O   UNL     1       4.821   2.328   2.406  0.00  0.00    -0.339 OA
ATOM      6  N   UNL     1       4.124   1.686   3.169  0.00  0.00    -0.081 NA
ATOM      7  N   UNL     1       4.834   2.756  -0.036  0.00  0.00    -0.286 N 
ATOM      8  C   UNL     1       4.348   2.237  -1.213  0.00  0.00    +0.019 C 
ATOM      9  C   UNL     1       3.268   1.428  -1.258  0.00  0.00    +0.024 C 
ATOM     10  C   UNL     1       2.489   1.046  -0.016  0.00  0.00    +0.091 C 
ATOM     11  C   UNL     1       2.814   0.895  -2.479  0.00  0.00    +0.162 C 
ATOM     12  O   UNL     1       1.829   0.184  -2.486  0.00  0.00    -0.292 OA
ATOM     13  C   UNL     1       3.520   1.185  -3.774  0.00  0.00    +0.088 C 
ATOM     14  C   UNL     1       5.000   1.459  -3.482  0.00  0.00    +0.032 C 
ATOM     15  C   UNL     1       5.086   2.609  -2.478  0.00  0.00    +0.059 C 
ATOM     16  H   UNL     1       5.479   3.480  -0.043  0.00  0.00    +0.155 HD
ENDROOT
BRANCH  10  17
ATOM     17  C   UNL     1       1.175   1.783   0.000  0.00  0.00    -0.032 A 
ATOM     18  C   UNL     1       1.160   3.166   0.008  0.00  0.00    +0.008 A 
ATOM     19  C   UNL     1      -0.043   3.847   0.023  0.00  0.00    +0.049 A 
ATOM     20  C   UNL     1      -1.237   3.144   0.030  0.00  0.00    +0.158 A 
ATOM     21  C   UNL     1      -1.222   1.752   0.017  0.00  0.00    +0.159 A 
ATOM     22  C   UNL     1      -0.013   1.076   0.008  0.00  0.00    +0.053 A 
BRANCH  21  23
ATOM     23  O   UNL     1      -2.391   1.058   0.019  0.00  0.00    -0.503 OA
ATOM     24  H   UNL     1      -2.725   0.852   0.903  0.00  0.00    +0.292 HD
ENDBRANCH  21  23
BRANCH  20  25
ATOM     25  O   UNL     1      -2.421   3.812   0.044  0.00  0.00    -0.503 OA
ATOM     26  H   UNL     1      -2.772   4.010  -0.835  0.00  0.00    +0.292 HD
ENDBRANCH  20  25
ENDBRANCH  10  17
BRANCH  14  27
ATOM     27  C   UNL     1       5.706   1.842  -4.757  0.00  0.00    -0.040 A 
ATOM     28  C   UNL     1       5.296   2.956  -5.465  0.00  0.00    +0.008 A 
ATOM     29  C   UNL     1       5.941   3.312  -6.635  0.00  0.00    +0.049 A 
ATOM     30  C   UNL     1       7.001   2.551  -7.100  0.00  0.00    +0.161 A 
ATOM     31  C   UNL     1       7.414   1.429  -6.388  0.00  0.00    +0.162 A 
ATOM     32  C   UNL     1       6.766   1.081  -5.214  0.00  0.00    +0.053 A 
BRANCH  31  33
ATOM     33  O   UNL     1       8.454   0.679  -6.841  0.00  0.00    -0.491 OA
ATOM     34  C   UNL     1       8.823  -0.458  -6.059  0.00  0.00    +0.277 C 
ENDBRANCH  31  33
BRANCH  30  35
ATOM     35  O   UNL     1       7.637   2.900  -8.251  0.00  0.00    -0.491 OA
ATOM     36  C   UNL     1       7.159   4.064  -8.929  0.00  0.00    +0.277 C 
ENDBRANCH  30  35
ENDBRANCH  14  27
TORSDOF 6
