REMARK  Name = ZINC39686618
REMARK  11 active torsions:
REMARK  status: ('A' for Active; 'I' for Inactive)
REMARK    1  A    between atoms: C_1  and  C_2
REMARK    2  A    between atoms: C_2  and  C_3
REMARK    3  A    between atoms: C_3  and  C_5
REMARK    4  A    between atoms: C_3  and  C_11
REMARK    5  A    between atoms: C_15  and  C_24
REMARK    6  A    between atoms: N_26  and  C_27
REMARK    7  A    between atoms: C_27  and  C_29
REMARK    8  A    between atoms: C_27  and  C_30
REMARK    9  A    between atoms: C_30  and  C_31
REMARK   10  A    between atoms: C_36  and  O_37
REMARK   11  A    between atoms: O_37  and  C_38
REMARK                            x       y       z     vdW  Elec       q    Type
REMARK                         _______ _______ _______ _____ _____    ______ ____
ROOT
ATOM      1  C   UNL     1      -1.405  -2.116   0.110  0.00  0.00    +0.223 C 
ATOM      2  O   UNL     1      -1.923  -2.809  -0.740  0.00  0.00    -0.275 OA
ATOM      3  N   UNL     1      -0.845  -2.685   1.196  0.00  0.00    -0.300 N 
ATOM      4  C   UNL     1      -0.177  -2.009   2.333  0.00  0.00    +0.121 C 
ATOM      5  C   UNL     1      -0.626  -2.805   3.578  0.00  0.00    +0.100 C 
ATOM      6  C   UNL     1      -1.005  -4.195   3.040  0.00  0.00    -0.004 C 
ATOM      7  C   UNL     1      -0.764  -4.128   1.525  0.00  0.00    +0.115 C 
ATOM      8  C   UNL     1      -0.118  -5.265   3.670  0.00  0.00    -0.010 C 
ATOM      9  C   UNL     1      -0.552  -6.644   3.164  0.00  0.00    -0.082 C 
ATOM     10  N   UNL     1      -1.958  -6.876   3.515  0.00  0.00    +0.379 N 
ATOM     11  C   UNL     1      -2.813  -5.899   2.830  0.00  0.00    -0.082 C 
ATOM     12  C   UNL     1      -2.475  -4.489   3.323  0.00  0.00    -0.010 C 
ATOM     13  H   UNL     1      -2.224  -7.808   3.235  0.00  0.00    -0.086 HD
ATOM     14  H   UNL     1      -2.075  -6.782   4.513  0.00  0.00    -0.086 HD
ENDROOT
BRANCH   5  15
ATOM     15  C   UNL     1       0.505  -2.913   4.568  0.00  0.00    +0.218 C 
ATOM     16  O   UNL     1       1.650  -2.979   4.175  0.00  0.00    -0.275 OA
ATOM     17  N   UNL     1       0.243  -2.938   5.890  0.00  0.00    -0.312 N 
ATOM     18  H   UNL     1      -0.673  -2.885   6.205  0.00  0.00    +0.149 HD
BRANCH  17  19
ATOM     19  C   UNL     1       1.343  -3.043   6.853  0.00  0.00    +0.074 C 
ATOM     20  C   UNL     1       1.906  -1.649   7.138  0.00  0.00    +0.028 C 
BRANCH  19  21
ATOM     21  C   UNL     1       0.825  -3.660   8.153  0.00  0.00    +0.060 C 
BRANCH  21  22
ATOM     22  C   UNL     1       0.384  -5.078   7.896  0.00  0.00    -0.004 A 
ATOM     23  C   UNL     1      -0.942  -5.350   7.619  0.00  0.00    +0.007 A 
ATOM     24  C   UNL     1      -1.348  -6.650   7.383  0.00  0.00    +0.000 A 
ATOM     25  C   UNL     1      -0.427  -7.682   7.423  0.00  0.00    +0.004 A 
ATOM     26  C   UNL     1       0.899  -7.415   7.698  0.00  0.00    +0.046 A 
ATOM     27  C   UNL     1       1.310  -6.110   7.930  0.00  0.00    +0.123 A 
BRANCH  27  28
ATOM     28  O   UNL     1       2.616  -5.844   8.196  0.00  0.00    -0.495 OA
ATOM     29  C   UNL     1       3.513  -6.956   8.216  0.00  0.00    +0.277 C 
ENDBRANCH  27  28
ENDBRANCH  21  22
ENDBRANCH  19  21
ENDBRANCH  17  19
ENDBRANCH   5  15
BRANCH   1  30
ATOM     30  C   UNL     1      -1.387  -0.617  -0.049  0.00  0.00    +0.105 C 
BRANCH  30  31
ATOM     31  C   UNL     1      -2.072  -0.240  -1.337  0.00  0.00    -0.036 A 
ATOM     32  C   UNL     1      -1.588  -0.714  -2.542  0.00  0.00    +0.004 A 
ATOM     33  C   UNL     1      -2.216  -0.368  -3.724  0.00  0.00    +0.000 A 
ATOM     34  C   UNL     1      -3.330   0.451  -3.701  0.00  0.00    +0.000 A 
ATOM     35  C   UNL     1      -3.815   0.924  -2.496  0.00  0.00    +0.000 A 
ATOM     36  C   UNL     1      -3.189   0.575  -1.314  0.00  0.00    +0.004 A 
ENDBRANCH  30  31
BRANCH  30  38
ATOM     37  C   UNL     1       0.079   1.405  -0.114  0.00  0.00    +0.005 C 
ATOM     38  C   UNL     1       0.061  -0.124  -0.078  0.00  0.00    +0.014 C 
ENDBRANCH  30  38
ENDBRANCH   1  30
TORSDOF 8
