REMARK  Name = ZINC43092665
REMARK  10 active torsions:
REMARK  status: ('A' for Active; 'I' for Inactive)
REMARK    1  A    between atoms: C_1  and  C_2
REMARK    2  A    between atoms: C_2  and  C_3
REMARK    3  A    between atoms: C_3  and  C_5
REMARK    4  A    between atoms: C_3  and  N_23
REMARK    5  A    between atoms: C_5  and  C_7
REMARK    6  A    between atoms: C_5  and  N_14
REMARK    7  A    between atoms: N_14  and  C_15
REMARK    8  A    between atoms: N_14  and  C_16
REMARK    9  A    between atoms: C_16  and  C_17
REMARK   10  A    between atoms: C_21  and  C_22
REMARK                            x       y       z     vdW  Elec       q    Type
REMARK                         _______ _______ _______ _____ _____    ______ ____
ROOT
ATOM      1  C   UNL     1       0.246  -1.170  -1.429  0.00  0.00    -0.051 C 
ENDROOT
BRANCH   1   2
ATOM      2  C   UNL     1       1.206  -1.534  -0.326  0.00  0.00    -0.049 A 
ATOM      3  C   UNL     1       0.732  -2.077   0.853  0.00  0.00    +0.003 A 
ATOM      4  C   UNL     1       1.613  -2.411   1.865  0.00  0.00    +0.000 A 
ATOM      5  C   UNL     1       2.969  -2.201   1.698  0.00  0.00    +0.001 A 
ATOM      6  C   UNL     1       3.445  -1.658   0.519  0.00  0.00    +0.015 A 
ATOM      7  C   UNL     1       2.564  -1.329  -0.495  0.00  0.00    +0.019 A 
ATOM      8 BR   UNL     1       3.215  -0.592  -2.111  0.00  0.00    -0.050 Br
ENDBRANCH   1   2
BRANCH   1   9
ATOM      9  N   UNL     1      -0.893  -2.097  -1.411  0.00  0.00    +0.384 N 
ATOM     10  C   UNL     1      -1.877  -1.683  -2.420  0.00  0.00    -0.095 C 
ATOM     11  H   UNL     1      -1.322  -2.086  -0.498  0.00  0.00    -0.081 HD
BRANCH   9  12
ATOM     12  C   UNL     1      -0.423  -3.456  -1.714  0.00  0.00    -0.039 C 
BRANCH  12  13
ATOM     13  C   UNL     1      -1.579  -4.419  -1.624  0.00  0.00    -0.023 A 
ATOM     14  C   UNL     1      -2.300  -4.973  -2.706  0.00  0.00    +0.043 A 
ATOM     15  C   UNL     1      -3.241  -5.777  -2.177  0.00  0.00    +0.195 A 
ATOM     16  O   UNL     1      -3.128  -5.738  -0.840  0.00  0.00    -0.468 OA
ATOM     17  C   UNL     1      -2.119  -4.920  -0.499  0.00  0.00    +0.103 A 
ATOM     18  C   UNL     1      -1.669  -4.613   0.907  0.00  0.00    +0.086 C 
ENDBRANCH  12  13
ENDBRANCH   9  12
ENDBRANCH   1   9
BRANCH   1  19
ATOM     19  C   UNL     1      -0.257   0.259  -1.217  0.00  0.00    -0.085 C 
BRANCH  19  20
ATOM     20  N   UNL     1       0.890   1.174  -1.134  0.00  0.00    +0.379 N 
ATOM     21  H   UNL     1       1.503   0.879  -0.389  0.00  0.00    -0.090 HD
ATOM     22  H   UNL     1       1.393   1.163  -2.009  0.00  0.00    -0.090 HD
ATOM     23  H   UNL     1       0.560   2.110  -0.948  0.00  0.00    -0.090 HD
ENDBRANCH  19  20
BRANCH  19  25
ATOM     24  C   UNL     1      -1.667   1.726   0.233  0.00  0.00    +0.002 C 
ATOM     25  C   UNL     1      -1.060   0.330   0.083  0.00  0.00    -0.021 C 
ENDBRANCH  19  25
ENDBRANCH   1  19
TORSDOF 7
