REMARK  Name = ZINC20711907
REMARK  7 active torsions:
REMARK  status: ('A' for Active; 'I' for Inactive)
REMARK    1  A    between atoms: C_1  and  C_2
REMARK    2  A    between atoms: C_2  and  C_3
REMARK    3  A    between atoms: C_3  and  C_5
REMARK    4  A    between atoms: C_3  and  N_6
REMARK    5  A    between atoms: N_6  and  S_7
REMARK    6  A    between atoms: S_7  and  C_10
REMARK    7  A    between atoms: C_23  and  C_26
REMARK                            x       y       z     vdW  Elec       q    Type
REMARK                         _______ _______ _______ _____ _____    ______ ____
ROOT
ATOM      1  C   UNL     1       4.518   1.040   1.963  0.00  0.00    +0.106 A 
ATOM      2  C   UNL     1       4.170  -0.204   2.456  0.00  0.00    +0.030 A 
ATOM      3  C   UNL     1       2.922  -0.725   2.180  0.00  0.00    +0.025 A 
ATOM      4  C   UNL     1       2.021   0.000   1.410  0.00  0.00    +0.031 A 
ATOM      5  C   UNL     1       2.365   1.249   0.915  0.00  0.00    -0.018 A 
ATOM      6  C   UNL     1       3.624   1.761   1.198  0.00  0.00    +0.034 A 
ATOM      7  C   UNL     1       1.427   2.068   0.086  0.00  0.00    +0.049 C 
ATOM      8  C   UNL     1       1.820   2.050  -1.372  0.00  0.00    -0.023 C 
ATOM      9  C   UNL     1       0.751   2.047  -2.130  0.00  0.00    -0.030 C 
ATOM     10  C   UNL     1      -0.504   2.068  -1.278  0.00  0.00    +0.033 C 
ATOM     11  C   UNL     1      -0.015   1.524   0.097  0.00  0.00    +0.029 C 
ATOM     12  C   UNL     1       0.002  -0.004   0.002  0.00  0.00    +0.106 C 
ATOM     13  N   UNL     1       0.760  -0.541   1.137  0.00  0.00    -0.336 N 
ATOM     14  H   UNL     1       0.335  -1.350   1.749  0.00  0.00    +0.147 HD
ENDROOT
BRANCH  12  15
ATOM     15  C   UNL     1      -1.410  -0.528   0.042  0.00  0.00    -0.007 A 
ATOM     16  C   UNL     1      -2.437   0.284   0.487  0.00  0.00    +0.007 A 
ATOM     17  C   UNL     1      -3.732  -0.196   0.523  0.00  0.00    +0.002 A 
ATOM     18  C   UNL     1      -4.003  -1.489   0.116  0.00  0.00    +0.021 A 
ATOM     19  C   UNL     1      -2.978  -2.303  -0.328  0.00  0.00    +0.060 A 
ATOM     20  C   UNL     1      -1.680  -1.820  -0.372  0.00  0.00    +0.064 A 
ATOM     21 CL   UNL     1      -0.393  -2.838  -0.938  0.00  0.00    -0.082 Cl
ATOM     22 CL   UNL     1      -3.317  -3.927  -0.840  0.00  0.00    -0.082 Cl
ENDBRANCH  12  15
BRANCH   1  23
ATOM     23  S   UNL     1       6.111   1.708   2.312  0.00  0.00    +0.059 S 
ATOM     24  O   UNL     1       5.995   3.119   2.194  0.00  0.00    -0.153 OA
ATOM     25  O   UNL     1       6.564   1.077   3.502  0.00  0.00    -0.153 OA
BRANCH  23  26
ATOM     26  N   UNL     1       7.125   1.214   1.099  0.00  0.00    -0.187 NA
ATOM     27  H   UNL     1       7.855   0.416   1.300  0.00  0.00    +0.148 HD
BRANCH  26  28
ATOM     28  C   UNL     1       6.905   1.676  -0.274  0.00  0.00    +0.073 C 
ATOM     29  C   UNL     1       7.775   2.905  -0.544  0.00  0.00    +0.025 C 
BRANCH  28  31
ATOM     30  C   UNL     1       6.327  -0.622  -1.067  0.00  0.00    +0.005 C 
ATOM     31  C   UNL     1       7.279   0.562  -1.253  0.00  0.00    +0.017 C 
ENDBRANCH  28  31
ENDBRANCH  26  28
ENDBRANCH  23  26
ENDBRANCH   1  23
TORSDOF 5
