REMARK  Name = ZINC22937284
REMARK  9 active torsions:
REMARK  status: ('A' for Active; 'I' for Inactive)
REMARK    1  A    between atoms: C_1  and  C_2
REMARK    2  A    between atoms: C_10  and  S_15
REMARK    3  A    between atoms: S_15  and  N_18
REMARK    4  A    between atoms: N_18  and  C_19
REMARK    5  A    between atoms: C_19  and  C_20
REMARK    6  A    between atoms: C_20  and  C_21
REMARK    7  A    between atoms: C_21  and  N_22
REMARK    8  A    between atoms: N_25  and  C_28
REMARK    9  A    between atoms: C_28  and  C_29
REMARK                            x       y       z     vdW  Elec       q    Type
REMARK                         _______ _______ _______ _____ _____    ______ ____
ROOT
ATOM      1  N   UNL     1       6.978   1.160  -1.462  0.00  0.00    -0.190 NA
ATOM      2  H   UNL     1       7.277   0.862  -2.335  0.00  0.00    +0.148 HD
ENDROOT
BRANCH   1   3
ATOM      3  S   UNL     1       6.938   0.096  -0.193  0.00  0.00    +0.058 S 
ATOM      4  O   UNL     1       7.584   0.740   0.897  0.00  0.00    -0.153 OA
ATOM      5  O   UNL     1       7.369  -1.159  -0.701  0.00  0.00    -0.153 OA
BRANCH   3  14
ATOM      6  C   UNL     1      -0.019   1.526   0.010  0.00  0.00    +0.020 C 
ATOM      7  C   UNL     1       0.002  -0.004   0.002  0.00  0.00    +0.057 C 
ATOM      8  C   UNL     1       0.743  -0.510  -1.248  0.00  0.00    +0.110 C 
ATOM      9  C   UNL     1       1.169  -1.937  -1.063  0.00  0.00    +0.218 C 
ATOM     10  O   UNL     1       0.416  -2.829  -1.390  0.00  0.00    -0.275 OA
ATOM     11  N   UNL     1       2.365  -2.243  -0.545  0.00  0.00    -0.284 N 
ATOM     12  C   UNL     1       3.158  -1.246   0.043  0.00  0.00    +0.049 A 
ATOM     13  C   UNL     1       4.485  -1.092  -0.322  0.00  0.00    +0.053 A 
ATOM     14  C   UNL     1       5.249  -0.101   0.268  0.00  0.00    +0.107 A 
ATOM     15  C   UNL     1       4.693   0.737   1.218  0.00  0.00    +0.030 A 
ATOM     16  C   UNL     1       3.368   0.589   1.589  0.00  0.00    +0.018 A 
ATOM     17  C   UNL     1       2.600  -0.404   1.002  0.00  0.00    +0.029 A 
ATOM     18  S   UNL     1       0.908  -0.620   1.461  0.00  0.00    -0.120 S 
ATOM     19  H   UNL     1       2.684  -3.158  -0.575  0.00  0.00    +0.155 HD
ENDBRANCH   3  14
ENDBRANCH   1   3
BRANCH   1  20
ATOM     20  C   UNL     1       6.561   2.550  -1.265  0.00  0.00    +0.104 C 
BRANCH  20  21
ATOM     21  C   UNL     1       7.034   3.397  -2.449  0.00  0.00    -0.002 C 
BRANCH  21  22
ATOM     22  C   UNL     1       6.599   4.849  -2.244  0.00  0.00    -0.077 C 
BRANCH  22  23
ATOM     23  N   UNL     1       7.053   5.662  -3.380  0.00  0.00    +0.381 N 
ATOM     24  C   UNL     1       8.522   5.694  -3.402  0.00  0.00    -0.063 C 
ATOM     25  C   UNL     1       8.996   6.525  -4.596  0.00  0.00    +0.066 C 
ATOM     26  N   UNL     1       8.460   7.889  -4.484  0.00  0.00    -0.302 NA
ATOM     27  C   UNL     1       6.992   7.871  -4.436  0.00  0.00    +0.066 C 
ATOM     28  C   UNL     1       6.534   7.029  -3.243  0.00  0.00    -0.063 C 
ATOM     29  H   UNL     1       6.713   5.258  -4.240  0.00  0.00    -0.082 HD
BRANCH  26  30
ATOM     30  C   UNL     1       8.940   8.735  -5.585  0.00  0.00    +0.119 C 
BRANCH  30  31
ATOM     31  C   UNL     1       8.578  10.172  -5.309  0.00  0.00    -0.033 A 
ATOM     32  C   UNL     1       7.369  10.677  -5.748  0.00  0.00    +0.005 A 
ATOM     33  C   UNL     1       7.037  11.994  -5.495  0.00  0.00    +0.000 A 
ATOM     34  C   UNL     1       7.914  12.807  -4.801  0.00  0.00    +0.000 A 
ATOM     35  C   UNL     1       9.123  12.302  -4.361  0.00  0.00    +0.000 A 
ATOM     36  C   UNL     1       9.453  10.983  -4.611  0.00  0.00    +0.005 A 
ENDBRANCH  30  31
ENDBRANCH  26  30
ENDBRANCH  22  23
ENDBRANCH  21  22
ENDBRANCH  20  21
ENDBRANCH   1  20
TORSDOF 8
