REMARK  Name = ZINC21240585
REMARK  2 active torsions:
REMARK  status: ('A' for Active; 'I' for Inactive)
REMARK    1  A    between atoms: C_8  and  C_26
REMARK    2  A    between atoms: C_14  and  C_19
REMARK                            x       y       z     vdW  Elec       q    Type
REMARK                         _______ _______ _______ _____ _____    ______ ____
ROOT
ATOM      1  C   UNL     1       0.461  -0.221  -0.195  0.00  0.00    +0.002 A 
ATOM      2  C   UNL     1       1.722  -0.781  -0.294  0.00  0.00    +0.002 A 
ATOM      3  C   UNL     1       2.847   0.025  -0.285  0.00  0.00    +0.025 A 
ATOM      4  C   UNL     1       2.698   1.397  -0.175  0.00  0.00    +0.052 A 
ATOM      5  C   UNL     1       1.433   1.961  -0.108  0.00  0.00    +0.049 A 
ATOM      6  C   UNL     1       0.309   1.151  -0.101  0.00  0.00    +0.025 A 
ATOM      7  N   UNL     1       1.331   3.352  -0.101  0.00  0.00    -0.331 N 
ATOM      8  C   UNL     1       1.756   4.140  -1.239  0.00  0.00    +0.137 C 
ATOM      9  C   UNL     1       3.236   4.072  -1.530  0.00  0.00    +0.036 C 
ATOM     10  C   UNL     1       4.108   3.205  -0.989  0.00  0.00    +0.017 C 
ATOM     11  N   UNL     1       3.787   2.255  -0.076  0.00  0.00    -0.316 N 
ATOM     12  C   UNL     1       5.571   3.226  -1.400  0.00  0.00    +0.059 C 
ATOM     13  C   UNL     1       5.998   4.656  -1.726  0.00  0.00    +0.032 C 
ATOM     14  C   UNL     1       5.116   5.156  -2.876  0.00  0.00    +0.088 C 
ATOM     15  C   UNL     1       3.680   5.039  -2.463  0.00  0.00    +0.163 C 
ATOM     16  O   UNL     1       2.867   5.802  -2.947  0.00  0.00    -0.292 OA
ATOM     17  H   UNL     1       0.918   3.850   0.789  0.00  0.00    +0.147 HD
ATOM     18  H   UNL     1       4.462   2.190   0.790  0.00  0.00    +0.152 HD
ENDROOT
BRANCH   8  19
ATOM     19  C   UNL     1       1.007   3.663  -2.457  0.00  0.00    -0.005 A 
ATOM     20  C   UNL     1       1.641   2.856  -3.384  0.00  0.00    +0.056 A 
ATOM     21  C   UNL     1       0.954   2.412  -4.502  0.00  0.00    +0.167 A 
ATOM     22  C   UNL     1      -0.374   2.789  -4.694  0.00  0.00    +0.167 A 
ATOM     23  C   UNL     1      -1.001   3.601  -3.764  0.00  0.00    +0.065 A 
ATOM     24  C   UNL     1      -0.310   4.037  -2.648  0.00  0.00    +0.027 A 
ATOM     25 BR   UNL     1      -1.169   5.147  -1.380  0.00  0.00    -0.050 Br
ATOM     26  O   UNL     1      -0.821   2.232  -5.858  0.00  0.00    -0.453 OA
ATOM     27  C   UNL     1       0.115   1.182  -6.166  0.00  0.00    +0.466 C 
ATOM     28  O   UNL     1       1.338   1.620  -5.545  0.00  0.00    -0.453 OA
ENDBRANCH   8  19
BRANCH  13  29
ATOM     29  C   UNL     1       7.446   4.672  -2.147  0.00  0.00    -0.043 A 
ATOM     30  C   UNL     1       7.853   3.942  -3.247  0.00  0.00    +0.007 A 
ATOM     31  C   UNL     1       9.179   3.960  -3.637  0.00  0.00    +0.038 A 
ATOM     32  C   UNL     1      10.101   4.702  -2.918  0.00  0.00    +0.123 A 
ATOM     33  C   UNL     1       9.693   5.429  -1.813  0.00  0.00    +0.038 A 
ATOM     34  C   UNL     1       8.365   5.413  -1.428  0.00  0.00    +0.007 A 
ATOM     35  F   UNL     1      11.399   4.716  -3.295  0.00  0.00    -0.205 F 
ENDBRANCH  13  29
TORSDOF 2
