REMARK  Name = ZINC48846732
REMARK  7 active torsions:
REMARK  status: ('A' for Active; 'I' for Inactive)
REMARK    1  A    between atoms: C_1  and  C_2
REMARK    2  A    between atoms: C_2  and  C_3
REMARK    3  A    between atoms: C_3  and  C_4
REMARK    4  A    between atoms: C_3  and  C_11
REMARK    5  A    between atoms: C_3  and  N_14
REMARK    6  A    between atoms: N_14  and  C_15
REMARK    7  A    between atoms: C_21  and  N_23
REMARK                            x       y       z     vdW  Elec       q    Type
REMARK                         _______ _______ _______ _____ _____    ______ ____
ROOT
ATOM      1  C   UNL     1       0.808  -0.656   1.319  0.00  0.00    +0.147 C 
ENDROOT
BRANCH   1   2
ATOM      2  C   UNL     1       0.128  -0.249   2.601  0.00  0.00    -0.016 A 
ATOM      3  C   UNL     1       0.758   0.621   3.470  0.00  0.00    +0.007 A 
ATOM      4  C   UNL     1       0.135   0.995   4.646  0.00  0.00    +0.015 A 
ATOM      5  C   UNL     1      -1.119   0.498   4.953  0.00  0.00    +0.018 A 
ATOM      6  C   UNL     1      -1.749  -0.373   4.082  0.00  0.00    +0.015 A 
ATOM      7  C   UNL     1      -1.127  -0.742   2.904  0.00  0.00    +0.007 A 
ATOM      8 BR   UNL     1      -1.972   1.008   6.561  0.00  0.00    -0.050 Br
ENDBRANCH   1   2
BRANCH   1   9
ATOM      9  C   UNL     1       0.989  -2.152   1.299  0.00  0.00    +0.380 C 
ATOM     10  O   UNL     1       2.108  -2.629   1.220  0.00  0.00    -0.244 OA
ATOM     11  O   UNL     1       0.017  -2.885   1.363  0.00  0.00    -0.244 OA
ENDBRANCH   1   9
BRANCH   1  13
ATOM     12  C   UNL     1      -0.312   1.275   0.196  0.00  0.00    +0.006 C 
ATOM     13  C   UNL     1      -0.054  -0.232   0.128  0.00  0.00    +0.035 C 
ENDBRANCH   1  13
BRANCH   1  14
ATOM     14  N   UNL     1       2.120  -0.002   1.231  0.00  0.00    -0.297 NA
ATOM     15  H   UNL     1       2.033   0.999   1.324  0.00  0.00    +0.123 HD
BRANCH  14  16
ATOM     16  C   UNL     1       2.803  -0.357  -0.020  0.00  0.00    +0.040 C 
ATOM     17  C   UNL     1       2.582   0.749  -1.054  0.00  0.00    +0.017 C 
ATOM     18  C   UNL     1       3.292   0.380  -2.357  0.00  0.00    +0.001 C 
ATOM     19  C   UNL     1       4.791   0.221  -2.093  0.00  0.00    -0.001 C 
ATOM     20  C   UNL     1       5.012  -0.886  -1.060  0.00  0.00    -0.015 C 
ATOM     21  C   UNL     1       4.301  -0.516   0.244  0.00  0.00    -0.058 C 
BRANCH  21  22
ATOM     22  N   UNL     1       4.514  -1.579   1.236  0.00  0.00    +0.381 N 
ATOM     23  H   UNL     1       4.140  -2.447   0.883  0.00  0.00    -0.090 HD
ATOM     24  H   UNL     1       5.502  -1.684   1.410  0.00  0.00    -0.090 HD
ATOM     25  H   UNL     1       4.045  -1.335   2.095  0.00  0.00    -0.090 HD
ENDBRANCH  21  22
ENDBRANCH  14  16
ENDBRANCH   1  14
TORSDOF 6
