REMARK  Name = ZINC36689118
REMARK  11 active torsions:
REMARK  status: ('A' for Active; 'I' for Inactive)
REMARK    1  A    between atoms: C_1  and  C_2
REMARK    2  A    between atoms: C_2  and  C_3
REMARK    3  A    between atoms: C_6  and  C_9
REMARK    4  A    between atoms: C_9  and  C_11
REMARK    5  A    between atoms: C_9  and  N_12
REMARK    6  A    between atoms: C_13  and  C_15
REMARK    7  A    between atoms: C_15  and  N_16
REMARK    8  A    between atoms: C_19  and  C_23
REMARK    9  A    between atoms: C_19  and  C_24
REMARK   10  A    between atoms: C_27  and  O_30
REMARK   11  A    between atoms: O_30  and  C_31
REMARK                            x       y       z     vdW  Elec       q    Type
REMARK                         _______ _______ _______ _____ _____    ______ ____
ROOT
ATOM      1  N   UNL     1      -7.785  -5.895  -1.648  0.00  0.00    -0.215 N 
ATOM      2  C   UNL     1      -7.625  -7.031  -0.940  0.00  0.00    +0.251 C 
ATOM      3  O   UNL     1      -6.591  -7.474  -0.490  0.00  0.00    -0.272 OA
ATOM      4  C   UNL     1      -9.009  -7.638  -0.824  0.00  0.00    +0.135 C 
ATOM      5  N   UNL     1      -9.868  -6.684  -1.547  0.00  0.00    -0.281 N 
ATOM      6  C   UNL     1      -9.064  -5.699  -1.986  0.00  0.00    +0.310 C 
ATOM      7  O   UNL     1      -9.456  -4.741  -2.623  0.00  0.00    -0.252 OA
ATOM      8  C   UNL     1      -9.432  -7.737   0.644  0.00  0.00    +0.047 C 
ATOM      9  H   UNL     1     -10.827  -6.752  -1.678  0.00  0.00    +0.152 HD
ENDROOT
BRANCH   4  10
ATOM     10  C   UNL     1      -9.051  -8.993  -1.482  0.00  0.00    -0.015 A 
ATOM     11  C   UNL     1      -7.914  -9.779  -1.515  0.00  0.00    +0.010 A 
ATOM     12  C   UNL     1      -7.949 -11.021  -2.118  0.00  0.00    +0.046 A 
ATOM     13  C   UNL     1      -9.127 -11.481  -2.690  0.00  0.00    +0.127 A 
ATOM     14  C   UNL     1     -10.267 -10.690  -2.654  0.00  0.00    +0.046 A 
ATOM     15  C   UNL     1     -10.227  -9.451  -2.046  0.00  0.00    +0.010 A 
BRANCH  13  16
ATOM     16  O   UNL     1      -9.164 -12.702  -3.284  0.00  0.00    -0.434 OA
BRANCH  16  17
ATOM     17  C   UNL     1     -10.410 -13.110  -3.852  0.00  0.00    +0.541 C 
ATOM     18  F   UNL     1     -11.388 -13.148  -2.852  0.00  0.00    -0.166 F 
ATOM     19  F   UNL     1     -10.792 -12.198  -4.842  0.00  0.00    -0.166 F 
ENDBRANCH  16  17
ENDBRANCH  13  16
ENDBRANCH   4  10
BRANCH   1  20
ATOM     20  C   UNL     1      -6.692  -4.983  -1.997  0.00  0.00    +0.213 C 
BRANCH  20  22
ATOM     21  N   UNL     1      -5.578  -3.005  -1.015  0.00  0.00    -0.307 N 
ATOM     22  C   UNL     1      -6.529  -3.954  -0.909  0.00  0.00    +0.231 C 
ATOM     23  O   UNL     1      -7.254  -3.979   0.064  0.00  0.00    -0.274 OA
ATOM     24  H   UNL     1      -4.998  -2.985  -1.793  0.00  0.00    +0.149 HD
BRANCH  21  25
ATOM     25  C   UNL     1      -5.419  -2.005   0.043  0.00  0.00    +0.100 C 
ATOM     26  C   UNL     1      -6.392  -0.849  -0.198  0.00  0.00    +0.033 C 
BRANCH  25  30
ATOM     27  C   UNL     1      -1.412  -0.526   0.013  0.00  0.00    -0.048 A 
ATOM     28  C   UNL     1      -2.051  -0.766   1.215  0.00  0.00    +0.004 A 
ATOM     29  C   UNL     1      -3.348  -1.244   1.225  0.00  0.00    +0.006 A 
ATOM     30  C   UNL     1      -4.006  -1.482   0.032  0.00  0.00    -0.027 A 
ATOM     31  C   UNL     1      -3.367  -1.241  -1.170  0.00  0.00    +0.006 A 
ATOM     32  C   UNL     1      -2.072  -0.758  -1.179  0.00  0.00    +0.004 A 
BRANCH  27  34
ATOM     33  C   UNL     1      -0.019   1.526   0.010  0.00  0.00    +0.009 C 
ATOM     34  C   UNL     1       0.002  -0.004   0.002  0.00  0.00    +0.032 C 
ENDBRANCH  27  34
ENDBRANCH  25  30
ENDBRANCH  21  25
ENDBRANCH  20  22
ENDBRANCH   1  20
TORSDOF 8
