REMARK  Name = ZINC22801539
REMARK  4 active torsions:
REMARK  status: ('A' for Active; 'I' for Inactive)
REMARK    1  A    between atoms: C_6  and  C_7
REMARK    2  A    between atoms: C_7  and  N_8
REMARK    3  A    between atoms: N_11  and  C_14
REMARK    4  A    between atoms: C_14  and  C_15
REMARK                            x       y       z     vdW  Elec       q    Type
REMARK                         _______ _______ _______ _____ _____    ______ ____
ROOT
ATOM      1  N   UNL     1      -1.728  -1.016  -1.372  0.00  0.00    -0.302 NA
ATOM      2  C   UNL     1      -2.080   0.243  -2.042  0.00  0.00    +0.066 C 
ATOM      3  C   UNL     1      -2.468  -0.046  -3.494  0.00  0.00    -0.063 C 
ATOM      4  N   UNL     1      -3.610  -0.970  -3.520  0.00  0.00    +0.386 N 
ATOM      5  C   UNL     1      -3.235  -2.232  -2.869  0.00  0.00    -0.063 C 
ATOM      6  C   UNL     1      -2.853  -1.961  -1.413  0.00  0.00    +0.066 C 
ATOM      7  H   UNL     1      -4.388  -0.557  -3.030  0.00  0.00    -0.081 HD
ENDROOT
BRANCH   1   8
ATOM      8  C   UNL     1      -1.294  -0.774   0.010  0.00  0.00    +0.119 C 
BRANCH   8  14
ATOM      9  C   UNL     1      -0.017   1.378   0.010  0.00  0.00    +0.009 A 
ATOM     10  C   UNL     1       1.170   2.088   0.002  0.00  0.00    +0.050 A 
ATOM     11  C   UNL     1       2.380   1.416  -0.013  0.00  0.00    +0.166 A 
ATOM     12  C   UNL     1       2.399   0.023  -0.021  0.00  0.00    +0.167 A 
ATOM     13  C   UNL     1       1.207  -0.682  -0.014  0.00  0.00    +0.054 A 
ATOM     14  C   UNL     1       0.002  -0.004   0.002  0.00  0.00    -0.030 A 
ATOM     15  O   UNL     1       3.698  -0.395  -0.036  0.00  0.00    -0.453 OA
ATOM     16  C   UNL     1       4.466   0.750  -0.450  0.00  0.00    +0.466 C 
ATOM     17  O   UNL     1       3.668   1.870  -0.024  0.00  0.00    -0.453 OA
ENDBRANCH   8  14
ENDBRANCH   1   8
BRANCH   4  18
ATOM     18  C   UNL     1      -3.994  -1.233  -4.914  0.00  0.00    -0.003 C 
BRANCH  18  19
ATOM     19  C   UNL     1      -5.239  -2.082  -4.939  0.00  0.00    +0.094 A 
ATOM     20  N   UNL     1      -5.769  -2.451  -6.134  0.00  0.00    -0.312 N 
ATOM     21  H   UNL     1      -5.338  -2.164  -6.954  0.00  0.00    +0.170 HD
ATOM     22  C   UNL     1      -6.880  -3.209  -6.203  0.00  0.00    +0.260 A 
ATOM     23  O   UNL     1      -7.345  -3.533  -7.282  0.00  0.00    -0.267 OA
ATOM     24  C   UNL     1      -7.506  -3.627  -4.984  0.00  0.00    +0.075 A 
ATOM     25  C   UNL     1      -8.714  -4.449  -4.820  0.00  0.00    -0.023 A 
ATOM     26  C   UNL     1      -9.107  -4.707  -3.561  0.00  0.00    -0.004 A 
ATOM     27  S   UNL     1      -7.912  -3.889  -2.530  0.00  0.00    -0.073 S 
ATOM     28  C   UNL     1      -6.888  -3.198  -3.802  0.00  0.00    +0.116 A 
ATOM     29  N   UNL     1      -5.785  -2.453  -3.812  0.00  0.00    -0.229 NA
ATOM     30  C   UNL     1     -10.353  -5.550  -3.517  0.00  0.00    +0.043 C 
ATOM     31  C   UNL     1     -10.949  -5.437  -4.937  0.00  0.00    +0.010 C 
ATOM     32  C   UNL     1      -9.695  -5.130  -5.779  0.00  0.00    +0.037 C 
ENDBRANCH  18  19
ENDBRANCH   4  18
TORSDOF 4
