REMARK  Name = ZINC20942880
REMARK  3 active torsions:
REMARK  status: ('A' for Active; 'I' for Inactive)
REMARK    1  A    between atoms: C_3  and  C_17
REMARK    2  A    between atoms: C_17  and  N_18
REMARK    3  A    between atoms: N_18  and  C_19
REMARK                            x       y       z     vdW  Elec       q    Type
REMARK                         _______ _______ _______ _____ _____    ______ ____
ROOT
ATOM      1  C   UNL     1       1.760   3.429   6.171  0.00  0.00    +0.020 A 
ATOM      2  C   UNL     1       0.717   3.503   5.226  0.00  0.00    +0.021 A 
ATOM      3  C   UNL     1       0.567   2.274   4.691  0.00  0.00    +0.009 A 
ATOM      4  N   UNL     1       1.486   1.444   5.267  0.00  0.00    -0.300 N 
ATOM      5  C   UNL     1       2.215   2.160   6.174  0.00  0.00    +0.093 A 
ATOM      6  C   UNL     1       1.654   0.089   4.976  0.00  0.00    +0.202 A 
ATOM      7  N   UNL     1       1.000  -0.685   4.126  0.00  0.00    -0.121 NA
ATOM      8  N   UNL     1       1.284  -1.906   3.979  0.00  0.00    -0.124 NA
ATOM      9  C   UNL     1       2.247  -2.490   4.676  0.00  0.00    +0.186 A 
ATOM     10  S   UNL     1       2.810  -1.099   5.653  0.00  0.00    -0.013 S 
ATOM     11  N   UNL     1       2.692  -3.805   4.656  0.00  0.00    -0.308 N 
ATOM     12  C   UNL     1       4.133  -3.869   4.378  0.00  0.00    +0.107 C 
ATOM     13  C   UNL     1       4.615  -5.316   4.506  0.00  0.00    +0.019 C 
ATOM     14  C   UNL     1       3.845  -6.194   3.516  0.00  0.00    +0.003 C 
ATOM     15  C   UNL     1       2.345  -6.073   3.796  0.00  0.00    +0.019 C 
ATOM     16  C   UNL     1       1.929  -4.604   3.689  0.00  0.00    +0.107 C 
ENDROOT
BRANCH   3  17
ATOM     17  C   UNL     1      -0.437   1.885   3.637  0.00  0.00    -0.027 C 
BRANCH  17  18
ATOM     18  N   UNL     1       0.189   1.970   2.311  0.00  0.00    +0.385 N 
ATOM     19  H   UNL     1       0.529   3.000   2.131  0.00  0.00    -0.085 HD
ATOM     20  H   UNL     1       1.049   1.286   2.267  0.00  0.00    -0.085 HD
BRANCH  18  21
ATOM     21  C   UNL     1      -0.763   1.597   1.255  0.00  0.00    -0.071 C 
ATOM     22  C   UNL     1      -0.013   1.086   0.008  0.00  0.00    -0.016 C 
ATOM     23  C   UNL     1      -0.784   1.609  -1.216  0.00  0.00    -0.002 C 
ATOM     24  C   UNL     1      -1.978   2.421  -0.670  0.00  0.00    -0.002 C 
ATOM     25  C   UNL     1      -1.531   2.845   0.750  0.00  0.00    -0.016 C 
ENDBRANCH  18  21
ENDBRANCH  17  18
ENDBRANCH   3  17
TORSDOF 3
