REMARK  Name = ZINC40158816
REMARK  6 active torsions:
REMARK  status: ('A' for Active; 'I' for Inactive)
REMARK    1  A    between atoms: C_1  and  C_2
REMARK    2  A    between atoms: C_2  and  C_3
REMARK    3  A    between atoms: N_8  and  C_10
REMARK    4  A    between atoms: C_10  and  C_11
REMARK    5  A    between atoms: N_13  and  N_14
REMARK    6  A    between atoms: C_15  and  C_17
REMARK                            x       y       z     vdW  Elec       q    Type
REMARK                         _______ _______ _______ _____ _____    ______ ____
ROOT
ATOM      1  C   UNL     1      -4.180  -4.536   0.464  0.00  0.00    +0.213 C 
ATOM      2  O   UNL     1      -5.112  -3.762   0.412  0.00  0.00    -0.276 OA
ATOM      3  N   UNL     1      -4.407  -5.852   0.646  0.00  0.00    -0.236 N 
ATOM      4  H   UNL     1      -3.662  -6.472   0.687  0.00  0.00    +0.173 HD
ENDROOT
BRANCH   3   5
ATOM      5  N   UNL     1      -5.719  -6.325   0.777  0.00  0.00    -0.228 N 
ATOM      6  C   UNL     1      -5.946  -7.641   0.960  0.00  0.00    +0.295 C 
ATOM      7  O   UNL     1      -5.011  -8.419   1.011  0.00  0.00    -0.265 OA
ATOM      8  H   UNL     1      -6.464  -5.706   0.736  0.00  0.00    +0.173 HD
BRANCH   6   9
ATOM      9  C   UNL     1      -7.318  -8.136   1.097  0.00  0.00    +0.192 A 
ATOM     10  C   UNL     1      -7.687  -9.438   1.290  0.00  0.00    +0.056 A 
ATOM     11  C   UNL     1      -9.087  -9.454   1.365  0.00  0.00    +0.058 A 
ATOM     12  C   UNL     1      -9.509  -8.177   1.215  0.00  0.00    +0.171 A 
ATOM     13  O   UNL     1      -8.439  -7.386   1.059  0.00  0.00    -0.444 OA
ATOM     14 BR   UNL     1     -11.311  -7.603   1.230  0.00  0.00    -0.008 Br
ENDBRANCH   6   9
ENDBRANCH   3   5
BRANCH   1  15
ATOM     15  C   UNL     1      -2.769  -4.027   0.323  0.00  0.00    +0.020 C 
BRANCH  15  20
ATOM     16  C   UNL     1      -1.433  -0.534   0.013  0.00  0.00    -0.028 C 
ATOM     17  C   UNL     1      -2.136  -0.133  -1.288  0.00  0.00    -0.000 C 
ATOM     18  C   UNL     1      -3.545  -0.734  -1.301  0.00  0.00    -0.018 C 
ATOM     19  C   UNL     1      -3.447  -2.252  -1.138  0.00  0.00    -0.078 C 
ATOM     20  N   UNL     1      -2.790  -2.570   0.135  0.00  0.00    +0.386 N 
ATOM     21  C   UNL     1      -1.414  -2.059   0.128  0.00  0.00    -0.075 C 
ATOM     22  H   UNL     1      -3.302  -2.143   0.892  0.00  0.00    -0.081 HD
BRANCH  16  24
ATOM     23  C   UNL     1      -0.019   1.526   0.010  0.00  0.00    +0.004 C 
ATOM     24  C   UNL     1       0.002  -0.004   0.002  0.00  0.00    -0.002 C 
ENDBRANCH  16  24
ENDBRANCH  15  20
ENDBRANCH   1  15
TORSDOF 5
