REMARK  Name = ZINC04285495
REMARK  14 active torsions:
REMARK  status: ('A' for Active; 'I' for Inactive)
REMARK    1  A    between atoms: C_1  and  C_2
REMARK    2  A    between atoms: C_2  and  O_4
REMARK    3  A    between atoms: O_4  and  C_5
REMARK    4  A    between atoms: C_5  and  C_6
REMARK    5  A    between atoms: C_8  and  O_37
REMARK    6  A    between atoms: C_10  and  O_33
REMARK    7  A    between atoms: C_12  and  O_29
REMARK    8  A    between atoms: C_14  and  N_17
REMARK    9  A    between atoms: O_29  and  C_30
REMARK   10  A    between atoms: C_30  and  C_32
REMARK   11  A    between atoms: O_33  and  C_34
REMARK   12  A    between atoms: C_34  and  C_36
REMARK   13  A    between atoms: O_37  and  C_38
REMARK   14  A    between atoms: C_38  and  C_40
REMARK                            x       y       z     vdW  Elec       q    Type
REMARK                         _______ _______ _______ _____ _____    ______ ____
ROOT
ATOM      1  C   UNL     1       0.002  -0.004   0.002  0.00  0.00    +0.203 C 
ATOM      2  C   UNL     1       0.824  -0.497  -1.192  0.00  0.00    +0.253 C 
ATOM      3  C   UNL     1       0.790  -2.028  -1.228  0.00  0.00    +0.264 C 
ATOM      4  C   UNL     1      -0.667  -2.494  -1.294  0.00  0.00    +0.270 C 
ATOM      5  C   UNL     1      -1.432  -1.924  -0.096  0.00  0.00    +0.268 C 
ATOM      6  O   UNL     1      -1.335  -0.498  -0.105  0.00  0.00    -0.342 OA
ENDROOT
BRANCH   5   7
ATOM      7  N   UNL     1      -2.840  -2.318  -0.183  0.00  0.00    -0.269 N 
ATOM      8  C   UNL     1      -3.462  -3.282   0.572  0.00  0.00    +0.170 A 
ATOM      9  C   UNL     1      -4.803  -3.308   0.139  0.00  0.00    +0.146 A 
ATOM     10  C   UNL     1      -5.676  -4.213   0.749  0.00  0.00    +0.161 A 
ATOM     11  N   UNL     1      -5.206  -5.002   1.702  0.00  0.00    -0.203 NA
ATOM     12  C   UNL     1      -3.941  -4.946   2.079  0.00  0.00    +0.226 A 
ATOM     13  N   UNL     1      -3.079  -4.110   1.534  0.00  0.00    -0.198 NA
ATOM     14 CL   UNL     1      -3.393  -6.011   3.335  0.00  0.00    -0.041 Cl
ATOM     15 CL   UNL     1      -7.341  -4.299   0.266  0.00  0.00    -0.060 Cl
ATOM     16  N   UNL     1      -4.924  -2.376  -0.838  0.00  0.00    -0.213 NA
ATOM     17  C   UNL     1      -3.772  -1.798  -1.032  0.00  0.00    +0.208 A 
ATOM     18 CL   UNL     1      -3.470  -0.547  -2.197  0.00  0.00    -0.043 Cl
ENDBRANCH   5   7
BRANCH   1  19
ATOM     19  C   UNL     1      -0.019   1.526   0.010  0.00  0.00    +0.267 C 
BRANCH  19  20
ATOM     20  O   UNL     1      -0.698   1.994   1.205  0.00  0.00    -0.462 OA
BRANCH  20  22
ATOM     21  C   UNL     1      -1.495   3.883   2.581  0.00  0.00    +0.136 C 
ATOM     22  C   UNL     1      -0.803   3.323   1.365  0.00  0.00    +0.304 C 
ATOM     23  O   UNL     1      -0.342   4.069   0.535  0.00  0.00    -0.251 OA
ENDBRANCH  20  22
ENDBRANCH  19  20
ENDBRANCH   1  19
BRANCH   4  24
ATOM     24  O   UNL     1      -0.715  -3.945  -1.254  0.00  0.00    -0.453 OA
BRANCH  24  25
ATOM     25  C   UNL     1      -1.740  -4.538  -1.886  0.00  0.00    +0.304 C 
ATOM     26  O   UNL     1      -2.570  -3.867  -2.454  0.00  0.00    -0.251 OA
ATOM     27  C   UNL     1      -1.856  -6.040  -1.888  0.00  0.00    +0.136 C 
ENDBRANCH  24  25
ENDBRANCH   4  24
BRANCH   3  28
ATOM     28  O   UNL     1       1.505  -2.502  -2.399  0.00  0.00    -0.454 OA
BRANCH  28  29
ATOM     29  C   UNL     1       2.817  -2.747  -2.255  0.00  0.00    +0.304 C 
ATOM     30  O   UNL     1       3.350  -2.572  -1.185  0.00  0.00    -0.251 OA
ATOM     31  C   UNL     1       3.625  -3.242  -3.427  0.00  0.00    +0.136 C 
ENDBRANCH  28  29
ENDBRANCH   3  28
BRANCH   2  32
ATOM     32  O   UNL     1       2.197  -0.045  -1.055  0.00  0.00    -0.455 OA
BRANCH  32  33
ATOM     33  C   UNL     1       2.504   1.144  -1.596  0.00  0.00    +0.304 C 
ATOM     34  O   UNL     1       1.654   1.787  -2.165  0.00  0.00    -0.251 OA
ATOM     35  C   UNL     1       3.910   1.679  -1.493  0.00  0.00    +0.136 C 
ENDBRANCH  32  33
ENDBRANCH   2  32
TORSDOF 10
