REMARK  Name = ZINC39486408
REMARK  9 active torsions:
REMARK  status: ('A' for Active; 'I' for Inactive)
REMARK    1  A    between atoms: C_1  and  C_2
REMARK    2  A    between atoms: C_2  and  C_3
REMARK    3  A    between atoms: C_2  and  S_4
REMARK    4  A    between atoms: S_4  and  C_7
REMARK    5  A    between atoms: C_7  and  C_9
REMARK    6  A    between atoms: C_11  and  C_28
REMARK    7  A    between atoms: C_21  and  S_23
REMARK    8  A    between atoms: S_23  and  C_24
REMARK    9  A    between atoms: C_32  and  O_34
REMARK                            x       y       z     vdW  Elec       q    Type
REMARK                         _______ _______ _______ _____ _____    ______ ____
ROOT
ATOM      1  C   UNL     1      -1.427  -3.180  -1.121  0.00  0.00    +0.111 C 
ATOM      2  C   UNL     1      -1.410  -4.669  -0.787  0.00  0.00    +0.063 C 
ATOM      3  C   UNL     1      -1.434  -5.508  -2.036  0.00  0.00    -0.025 A 
ATOM      4  C   UNL     1      -0.961  -6.804  -1.982  0.00  0.00    +0.054 A 
ATOM      5  C   UNL     1      -0.973  -7.606  -3.115  0.00  0.00    +0.167 A 
ATOM      6  C   UNL     1      -1.466  -7.107  -4.323  0.00  0.00    +0.167 A 
ATOM      7  C   UNL     1      -1.941  -5.814  -4.388  0.00  0.00    +0.061 A 
ATOM      8  C   UNL     1      -1.925  -5.006  -3.244  0.00  0.00    +0.026 A 
ATOM      9  C   UNL     1      -2.424  -3.623  -3.322  0.00  0.00    +0.177 C 
ATOM     10  O   UNL     1      -2.661  -3.100  -4.391  0.00  0.00    -0.291 OA
ATOM     11  C   UNL     1      -2.630  -2.874  -2.022  0.00  0.00    +0.130 C 
ATOM     12  O   UNL     1      -1.368  -8.085  -5.271  0.00  0.00    -0.453 OA
ATOM     13  C   UNL     1      -0.437  -9.044  -4.736  0.00  0.00    +0.466 C 
ATOM     14  O   UNL     1      -0.569  -8.894  -3.311  0.00  0.00    -0.453 OA
ENDROOT
BRANCH   2  15
ATOM     15  C   UNL     1      -0.161  -4.986  -0.006  0.00  0.00    -0.036 A 
ATOM     16  C   UNL     1       1.082  -4.743  -0.562  0.00  0.00    +0.004 A 
ATOM     17  C   UNL     1       2.230  -5.033   0.152  0.00  0.00    +0.004 A 
ATOM     18  C   UNL     1       2.138  -5.566   1.423  0.00  0.00    +0.045 A 
ATOM     19  C   UNL     1       0.893  -5.810   1.984  0.00  0.00    +0.117 A 
ATOM     20  C   UNL     1      -0.258  -5.513   1.267  0.00  0.00    +0.049 A 
BRANCH  19  21
ATOM     21  O   UNL     1       0.800  -6.334   3.234  0.00  0.00    -0.507 OA
ATOM     22  H   UNL     1       0.766  -5.671   3.937  0.00  0.00    +0.292 HD
ENDBRANCH  19  21
ENDBRANCH   2  15
BRANCH   1  23
ATOM     23  C   UNL     1      -1.536  -2.381   0.152  0.00  0.00    +0.273 C 
ATOM     24  O   UNL     1      -2.056  -2.867   1.128  0.00  0.00    -0.272 OA
BRANCH  23  25
ATOM     25  S   UNL     1      -0.905  -0.737   0.217  0.00  0.00    +0.032 S 
ATOM     26  O   UNL     1      -1.591  -0.128   1.303  0.00  0.00    -0.166 OA
ATOM     27  O   UNL     1      -1.055  -0.238  -1.105  0.00  0.00    -0.166 OA
BRANCH  25  29
ATOM     28  C   UNL     1       1.483   0.451   0.823  0.00  0.00    +0.032 C 
ATOM     29  C   UNL     1       0.854  -0.928   0.618  0.00  0.00    +0.133 C 
ATOM     30  C   UNL     1       0.999  -1.751   1.899  0.00  0.00    +0.032 C 
ENDBRANCH  25  29
ENDBRANCH  23  25
ENDBRANCH   1  23
BRANCH  11  31
ATOM     31  S   UNL     1      -4.158  -3.438  -1.223  0.00  0.00    -0.152 S 
ATOM     32  C   UNL     1      -5.472  -2.869  -2.337  0.00  0.00    +0.085 C 
ENDBRANCH  11  31
TORSDOF 6
