REMARK  Name = ZINC13267035
REMARK  6 active torsions:
REMARK  status: ('A' for Active; 'I' for Inactive)
REMARK    1  A    between atoms: C_5  and  N_7
REMARK    2  A    between atoms: C_11  and  S_12
REMARK    3  A    between atoms: S_12  and  C_13
REMARK    4  A    between atoms: C_13  and  C_14
REMARK    5  A    between atoms: N_16  and  C_17
REMARK    6  A    between atoms: C_22  and  C_23
REMARK                            x       y       z     vdW  Elec       q    Type
REMARK                         _______ _______ _______ _____ _____    ______ ____
ROOT
ATOM      1  C   UNL     1       3.309   6.171   3.256  0.00  0.00    +0.173 C 
ENDROOT
BRANCH   1   2
ATOM      2  C   UNL     1       2.827   6.632   4.607  0.00  0.00    +0.228 C 
ATOM      3  O   UNL     1       1.762   6.242   5.038  0.00  0.00    -0.275 OA
ATOM      4  N   UNL     1       3.579   7.479   5.338  0.00  0.00    -0.284 N 
ATOM      5  H   UNL     1       4.459   7.740   5.024  0.00  0.00    +0.155 HD
BRANCH   4   6
ATOM      6  C   UNL     1       3.093   7.979   6.543  0.00  0.00    +0.048 A 
ATOM      7  C   UNL     1       2.300   7.184   7.359  0.00  0.00    +0.025 A 
ATOM      8  C   UNL     1       1.819   7.681   8.554  0.00  0.00    +0.017 A 
ATOM      9  C   UNL     1       2.124   8.975   8.949  0.00  0.00    +0.019 A 
ATOM     10  C   UNL     1       2.911   9.779   8.152  0.00  0.00    +0.032 A 
ATOM     11  C   UNL     1       3.409   9.287   6.942  0.00  0.00    +0.085 A 
ATOM     12 BR   UNL     1       1.458   9.639  10.589  0.00  0.00    -0.050 Br
BRANCH  11  13
ATOM     13  C   UNL     1       4.255  10.139   6.088  0.00  0.00    +0.388 C 
ATOM     14  O   UNL     1       4.603   9.746   4.992  0.00  0.00    -0.241 OA
ATOM     15  O   UNL     1       4.644  11.354   6.522  0.00  0.00    -0.241 OA
ENDBRANCH  11  13
ENDBRANCH   4   6
ENDBRANCH   1   2
BRANCH   1  16
ATOM     16  S   UNL     1       2.087   5.050   2.531  0.00  0.00    -0.076 S 
BRANCH  16  21
ATOM     17  N   UNL     1       2.409   3.854   0.019  0.00  0.00    -0.274 N 
ATOM     18  C   UNL     1       3.357   3.876  -0.969  0.00  0.00    +0.230 A 
ATOM     19  N   UNL     1       4.316   4.661  -0.568  0.00  0.00    -0.137 NA
ATOM     20  N   UNL     1       4.044   5.133   0.596  0.00  0.00    -0.122 NA
ATOM     21  C   UNL     1       2.882   4.677   1.004  0.00  0.00    +0.196 A 
BRANCH  17  26
ATOM     22  C   UNL     1       0.021   1.053   0.021  0.00  0.00    +0.002 A 
ATOM     23  C   UNL     1      -1.183   1.733   0.014  0.00  0.00    +0.003 A 
ATOM     24  C   UNL     1      -1.200   3.115   0.017  0.00  0.00    +0.040 A 
ATOM     25  C   UNL     1      -0.011   3.822   0.017  0.00  0.00    +0.147 A 
ATOM     26  C   UNL     1       1.200   3.141   0.019  0.00  0.00    +0.085 A 
ATOM     27  C   UNL     1       1.212   1.753   0.021  0.00  0.00    +0.029 A 
ATOM     28  F   UNL     1      -0.027   5.173   0.014  0.00  0.00    -0.203 F 
ENDBRANCH  17  26
ENDBRANCH  16  21
ENDBRANCH   1  16
TORSDOF 6
