REMARK  Name = ZINC57130444
REMARK  6 active torsions:
REMARK  status: ('A' for Active; 'I' for Inactive)
REMARK    1  A    between atoms: C_1  and  S_2
REMARK    2  A    between atoms: S_2  and  C_3
REMARK    3  A    between atoms: C_3  and  C_4
REMARK    4  A    between atoms: C_4  and  C_5
REMARK    5  A    between atoms: C_5  and  C_7
REMARK    6  A    between atoms: C_5  and  N_24
REMARK                            x       y       z     vdW  Elec       q    Type
REMARK                         _______ _______ _______ _____ _____    ______ ____
ROOT
ATOM      1  C   UNL     1       1.684  -3.791  -3.158  0.00  0.00    +0.236 C 
ATOM      2  O   UNL     1       2.659  -4.452  -2.867  0.00  0.00    -0.274 OA
ATOM      3  N   UNL     1       0.587  -4.394  -3.657  0.00  0.00    -0.295 N 
ATOM      4  C   UNL     1      -0.604  -3.612  -4.022  0.00  0.00    +0.114 C 
ATOM      5  C   UNL     1      -0.832  -3.725  -5.534  0.00  0.00    +0.072 C 
ATOM      6  C   UNL     1      -0.690  -5.171  -5.947  0.00  0.00    +0.023 A 
ATOM      7  C   UNL     1      -0.074  -6.114  -5.202  0.00  0.00    -0.002 A 
ATOM      8  C   UNL     1      -0.144  -7.357  -5.940  0.00  0.00    +0.006 A 
ATOM      9  C   UNL     1       0.317  -8.649  -5.670  0.00  0.00    +0.030 A 
ATOM     10  C   UNL     1       0.068  -9.609  -6.620  0.00  0.00    +0.042 A 
ATOM     11  C   UNL     1      -0.610  -9.323  -7.795  0.00  0.00    +0.022 A 
ATOM     12  C   UNL     1      -1.077  -8.053  -8.087  0.00  0.00    +0.027 A 
ATOM     13  C   UNL     1      -0.837  -7.059  -7.141  0.00  0.00    +0.047 A 
ATOM     14  N   UNL     1      -1.152  -5.731  -7.110  0.00  0.00    -0.358 N 
ATOM     15  H   UNL     1      -1.631  -5.255  -7.806  0.00  0.00    +0.166 HD
ATOM     16 CL   UNL     1       0.617 -11.232  -6.340  0.00  0.00    -0.084 Cl
ATOM     17  C   UNL     1       0.549  -5.853  -3.856  0.00  0.00    +0.145 C 
ENDROOT
BRANCH   1  18
ATOM     18  C   UNL     1       1.701  -2.297  -2.963  0.00  0.00    +0.161 C 
BRANCH  18  19
ATOM     19  N   UNL     1       3.087  -1.830  -2.881  0.00  0.00    -0.288 N 
ATOM     20  C   UNL     1       3.897  -2.295  -1.909  0.00  0.00    +0.298 C 
ATOM     21  O   UNL     1       3.478  -3.101  -1.101  0.00  0.00    -0.253 OA
ATOM     22  N   UNL     1       5.173  -1.865  -1.833  0.00  0.00    -0.313 N 
ATOM     23  H   UNL     1       3.421  -1.187  -3.525  0.00  0.00    +0.151 HD
ATOM     24  H   UNL     1       5.507  -1.222  -2.478  0.00  0.00    +0.146 HD
ATOM     25  H   UNL     1       5.756  -2.199  -1.134  0.00  0.00    +0.146 HD
ENDBRANCH  18  19
BRANCH  18  26
ATOM     26  C   UNL     1       0.966  -1.944  -1.668  0.00  0.00    +0.042 C 
BRANCH  26  27
ATOM     27  C   UNL     1       0.873  -0.423  -1.533  0.00  0.00    +0.071 C 
BRANCH  27  29
ATOM     28  C   UNL     1      -0.022   1.810   0.012  0.00  0.00    +0.084 C 
ATOM     29  S   UNL     1       0.002  -0.004   0.002  0.00  0.00    -0.164 S 
ENDBRANCH  27  29
ENDBRANCH  26  27
ENDBRANCH  18  26
ENDBRANCH   1  18
TORSDOF 5
