REMARK  Name = ZINC04716528
REMARK  9 active torsions:
REMARK  status: ('A' for Active; 'I' for Inactive)
REMARK    1  A    between atoms: C_1  and  O_2
REMARK    2  A    between atoms: O_2  and  C_3
REMARK    3  A    between atoms: C_5  and  C_13
REMARK    4  A    between atoms: C_6  and  O_11
REMARK    5  A    between atoms: C_8  and  O_9
REMARK    6  A    between atoms: O_9  and  C_10
REMARK    7  A    between atoms: O_11  and  C_12
REMARK    8  A    between atoms: C_18  and  O_25
REMARK    9  A    between atoms: C_20  and  O_24
REMARK                            x       y       z     vdW  Elec       q    Type
REMARK                         _______ _______ _______ _____ _____    ______ ____
ROOT
ATOM      1  C   UNL     1       1.165   3.574   0.010  0.00  0.00    +0.068 A 
ATOM      2  C   UNL     1       0.674   4.255   1.076  0.00  0.00    +0.208 A 
ATOM      3  O   UNL     1       0.641   5.590   1.123  0.00  0.00    -0.462 OA
ATOM      4  C   UNL     1       1.089   6.376   0.124  0.00  0.00    +0.145 A 
ATOM      5  C   UNL     1       1.028   7.758   0.234  0.00  0.00    +0.092 A 
ATOM      6  C   UNL     1       1.492   8.559  -0.797  0.00  0.00    +0.124 A 
ATOM      7  C   UNL     1       2.023   7.994  -1.951  0.00  0.00    +0.091 A 
ATOM      8  C   UNL     1       2.093   6.620  -2.082  0.00  0.00    +0.135 A 
ATOM      9  C   UNL     1       1.626   5.803  -1.043  0.00  0.00    +0.106 A 
ATOM     10  C   UNL     1       1.688   4.337  -1.138  0.00  0.00    +0.204 A 
ATOM     11  O   UNL     1       2.145   3.779  -2.121  0.00  0.00    -0.286 OA
ENDROOT
BRANCH   1  14
ATOM     12  C   UNL     1       0.002  -0.004   0.002  0.00  0.00    +0.162 A 
ATOM     13  C   UNL     1      -0.017   1.379   0.010  0.00  0.00    +0.061 A 
ATOM     14  C   UNL     1       1.181   2.091   0.002  0.00  0.00    +0.034 A 
ATOM     15  C   UNL     1       2.399   1.403  -0.013  0.00  0.00    +0.132 A 
ATOM     16  C   UNL     1       2.410   0.019  -0.021  0.00  0.00    +0.095 A 
ATOM     17  C   UNL     1       1.216  -0.685  -0.014  0.00  0.00    +0.165 A 
BRANCH  12  19
ATOM     18  C   UNL     1      -2.376   0.063   0.025  0.00  0.00    +0.277 C 
ATOM     19  O   UNL     1      -1.167  -0.700   0.009  0.00  0.00    -0.491 OA
ENDBRANCH  12  19
BRANCH  17  20
ATOM     20  O   UNL     1       1.230  -2.045  -0.021  0.00  0.00    -0.491 OA
ATOM     21  C   UNL     1       2.511  -2.680  -0.037  0.00  0.00    +0.277 C 
ENDBRANCH  17  20
BRANCH  15  22
ATOM     22  O   UNL     1       3.570   2.094  -0.020  0.00  0.00    -0.494 OA
ATOM     23  C   UNL     1       4.775   1.326  -0.037  0.00  0.00    +0.277 C 
ENDBRANCH  15  22
ENDBRANCH   1  14
BRANCH   8  24
ATOM     24  O   UNL     1       2.610   6.065  -3.207  0.00  0.00    -0.506 OA
ATOM     25  H   UNL     1       1.956   5.898  -3.899  0.00  0.00    +0.292 HD
ENDBRANCH   8  24
BRANCH   6  26
ATOM     26  O   UNL     1       1.427   9.910  -0.679  0.00  0.00    -0.507 OA
ATOM     27  H   UNL     1       0.604  10.294  -1.012  0.00  0.00    +0.292 HD
ENDBRANCH   6  26
TORSDOF 6
