REMARK  Name = ZINC67515947
REMARK  3 active torsions:
REMARK  status: ('A' for Active; 'I' for Inactive)
REMARK    1  A    between atoms: C_4  and  C_7
REMARK    2  A    between atoms: C_10  and  N_12
REMARK    3  A    between atoms: C_13  and  C_15
REMARK                            x       y       z     vdW  Elec       q    Type
REMARK                         _______ _______ _______ _____ _____    ______ ____
ROOT
ATOM      1  N   UNL     1       2.995  -1.756   2.181  0.00  0.00    -0.308 N 
ATOM      2  C   UNL     1       3.348  -2.147   3.422  0.00  0.00    +0.250 C 
ATOM      3  O   UNL     1       4.494  -2.487   3.650  0.00  0.00    -0.270 OA
ATOM      4  H   UNL     1       2.068  -1.556   1.981  0.00  0.00    +0.149 HD
ENDROOT
BRANCH   2   5
ATOM      5  C   UNL     1       2.349  -2.161   4.501  0.00  0.00    +0.101 A 
ATOM      6  C   UNL     1       2.722  -2.445   5.811  0.00  0.00    +0.023 A 
ATOM      7  C   UNL     1       1.748  -2.451   6.814  0.00  0.00    -0.027 A 
ATOM      8  C   UNL     1       0.453  -2.181   6.507  0.00  0.00    +0.022 A 
ATOM      9  N   UNL     1       0.087  -1.902   5.227  0.00  0.00    -0.325 N 
ATOM     10  H   UNL     1      -0.844  -1.712   5.032  0.00  0.00    +0.169 HD
ATOM     11  C   UNL     1       0.985  -1.880   4.228  0.00  0.00    +0.261 A 
ATOM     12  O   UNL     1       0.629  -1.623   3.091  0.00  0.00    -0.267 OA
ATOM     13  C   UNL     1      -0.401  -2.248   7.758  0.00  0.00    +0.054 C 
ATOM     14  C   UNL     1       0.454  -3.018   8.787  0.00  0.00    +0.011 C 
ATOM     15  C   UNL     1       1.888  -2.726   8.297  0.00  0.00    +0.037 C 
ENDBRANCH   2   5
BRANCH   1  18
ATOM     16  C   UNL     1       3.725  -0.675  -0.022  0.00  0.00    +0.041 C 
ATOM     17  C   UNL     1       3.672  -2.187  -0.252  0.00  0.00    +0.033 C 
ATOM     18  C   UNL     1       4.013  -1.634   1.134  0.00  0.00    +0.081 C 
BRANCH  16  22
ATOM     19  C   UNL     1       0.015   1.440   0.044  0.00  0.00    +0.000 A 
ATOM     20  C   UNL     1       1.208   2.138   0.044  0.00  0.00    +0.000 A 
ATOM     21  C   UNL     1       2.409   1.454   0.023  0.00  0.00    +0.004 A 
ATOM     22  C   UNL     1       2.416   0.071   0.002  0.00  0.00    -0.042 A 
ATOM     23  C   UNL     1       1.222  -0.626   0.003  0.00  0.00    +0.004 A 
ATOM     24  C   UNL     1       0.022   0.058   0.022  0.00  0.00    +0.000 A 
ENDBRANCH  16  22
ENDBRANCH   1  18
TORSDOF 3
