REMARK  Name = ZINC39314801
REMARK  3 active torsions:
REMARK  status: ('A' for Active; 'I' for Inactive)
REMARK    1  A    between atoms: C_6  and  C_7
REMARK    2  A    between atoms: C_7  and  N_8
REMARK    3  A    between atoms: C_16  and  C_18
REMARK                            x       y       z     vdW  Elec       q    Type
REMARK                         _______ _______ _______ _____ _____    ______ ____
ROOT
ATOM      1  N   UNL     1      -1.659  -1.268  -1.153  0.00  0.00    -0.305 N 
ATOM      2  C   UNL     1      -2.387  -0.317  -1.881  0.00  0.00    +0.054 A 
ATOM      3  C   UNL     1      -2.947   0.890  -1.481  0.00  0.00    +0.046 A 
ATOM      4  C   UNL     1      -3.633   1.673  -2.391  0.00  0.00    +0.061 A 
ATOM      5  C   UNL     1      -3.765   1.256  -3.705  0.00  0.00    +0.061 A 
ATOM      6  C   UNL     1      -3.211   0.057  -4.111  0.00  0.00    +0.046 A 
ATOM      7  C   UNL     1      -2.520  -0.736  -3.202  0.00  0.00    +0.051 A 
ATOM      8  N   UNL     1      -1.881  -1.973  -3.374  0.00  0.00    -0.323 N 
ATOM      9  C   UNL     1      -1.306  -2.352  -2.078  0.00  0.00    +0.175 C 
ATOM     10 CL   UNL     1      -4.628   2.242  -4.844  0.00  0.00    -0.082 Cl
ATOM     11 CL   UNL     1      -4.331   3.180  -1.886  0.00  0.00    -0.082 Cl
ATOM     12  H   UNL     1      -1.827  -2.482  -4.198  0.00  0.00    +0.148 HD
ENDROOT
BRANCH   9  13
ATOM     13  C   UNL     1       0.215  -2.477  -2.189  0.00  0.00    +0.138 C 
ATOM     14  C   UNL     1       0.772  -1.116  -2.560  0.00  0.00    -0.010 C 
ATOM     15  C   UNL     1       1.490  -1.032  -3.691  0.00  0.00    +0.014 C 
ATOM     16  C   UNL     1       1.712  -2.164  -4.497  0.00  0.00    +0.100 C 
ATOM     17  N   UNL     1       1.257  -3.357  -4.226  0.00  0.00    -0.188 NA
ATOM     18  C   UNL     1       0.523  -3.618  -3.137  0.00  0.00    +0.246 C 
ATOM     19  O   UNL     1       0.116  -4.740  -2.916  0.00  0.00    -0.273 OA
ENDBRANCH   9  13
BRANCH   1  20
ATOM     20  C   UNL     1      -1.308  -1.192   0.268  0.00  0.00    +0.142 C 
BRANCH  20  26
ATOM     21  C   UNL     1      -2.159  -3.297   1.321  0.00  0.00    +0.006 A 
ATOM     22  C   UNL     1      -3.095  -3.990   2.064  0.00  0.00    +0.020 A 
ATOM     23  C   UNL     1      -4.204  -3.332   2.566  0.00  0.00    +0.041 A 
ATOM     24  C   UNL     1      -4.375  -1.981   2.324  0.00  0.00    +0.020 A 
ATOM     25  C   UNL     1      -3.438  -1.289   1.580  0.00  0.00    +0.006 A 
ATOM     26  C   UNL     1      -2.330  -1.947   1.078  0.00  0.00    -0.030 A 
ATOM     27 CL   UNL     1      -5.381  -4.202   3.500  0.00  0.00    -0.084 Cl
ENDBRANCH  20  26
ENDBRANCH   1  20
TORSDOF 3
