REMARK  Name = ZINC04731228
REMARK  7 active torsions:
REMARK  status: ('A' for Active; 'I' for Inactive)
REMARK    1  A    between atoms: C_1  and  C_2
REMARK    2  A    between atoms: C_11  and  C_25
REMARK    3  A    between atoms: C_17  and  C_22
REMARK    4  A    between atoms: C_22  and  C_24
REMARK    5  A    between atoms: C_26  and  C_35
REMARK    6  A    between atoms: C_27  and  O_34
REMARK    7  A    between atoms: C_29  and  O_33
REMARK                            x       y       z     vdW  Elec       q    Type
REMARK                         _______ _______ _______ _____ _____    ______ ____
ROOT
ATOM      1  C   UNL     1       6.871  -1.064   5.139  0.00  0.00    +0.010 C 
ATOM      2  C   UNL     1       5.385  -0.732   5.238  0.00  0.00    +0.019 C 
ATOM      3  C   UNL     1       4.851  -0.319   3.856  0.00  0.00    +0.010 C 
ATOM      4  C   UNL     1       3.416   0.139   4.028  0.00  0.00    -0.003 C 
ATOM      5  C   UNL     1       2.505  -0.917   4.649  0.00  0.00    +0.001 C 
ATOM      6  C   UNL     1       1.902  -1.897   3.663  0.00  0.00    +0.005 C 
ATOM      7  C   UNL     1       1.222  -1.197   2.470  0.00  0.00    +0.008 C 
ATOM      8  C   UNL     1       2.196  -0.277   1.827  0.00  0.00    -0.016 C 
ATOM      9  C   UNL     1       2.764   0.741   2.828  0.00  0.00    -0.000 C 
ATOM     10  C   UNL     1       3.571   1.702   1.921  0.00  0.00    +0.009 C 
ATOM     11  C   UNL     1       2.468   1.923   0.860  0.00  0.00    +0.003 C 
ATOM     12  C   UNL     1       1.969   0.488   0.571  0.00  0.00    +0.037 C 
ATOM     13  C   UNL     1       0.693   0.528  -0.199  0.00  0.00    +0.015 C 
ATOM     14  C   UNL     1       0.915   1.309  -1.504  0.00  0.00    +0.001 C 
ATOM     15  C   UNL     1       1.567   2.667  -1.295  0.00  0.00    +0.000 C 
ATOM     16  C   UNL     1       2.832   2.615  -0.423  0.00  0.00    +0.004 C 
ATOM     17  C   UNL     1       3.355  -1.166   1.391  0.00  0.00    +0.012 C 
ATOM     18  C   UNL     1       3.113  -1.594   5.866  0.00  0.00    +0.000 C 
ATOM     19  C   UNL     1       4.586  -1.950   5.704  0.00  0.00    +0.077 C 
ATOM     20  C   UNL     1       4.755  -3.102   4.718  0.00  0.00    +0.067 C 
ATOM     21  C   UNL     1       4.034  -4.340   5.260  0.00  0.00    +0.117 C 
ATOM     22  C   UNL     1       2.544  -4.042   5.398  0.00  0.00    +0.032 C 
ATOM     23  C   UNL     1       2.295  -2.822   6.268  0.00  0.00    +0.012 C 
ATOM     24  C   UNL     1       3.002  -0.603   7.054  0.00  0.00    +0.014 C 
ENDROOT
BRANCH  12  25
ATOM     25  C   UNL     1       2.989  -0.128  -0.349  0.00  0.00    +0.137 C 
ATOM     26  O   UNL     1       4.097   0.345  -0.425  0.00  0.00    -0.297 OA
ATOM     27  C   UNL     1       2.627  -1.336  -1.174  0.00  0.00    +0.086 C 
ENDBRANCH  12  25
BRANCH  21  28
ATOM     28  O   UNL     1       4.222  -5.429   4.352  0.00  0.00    -0.392 OA
ATOM     29  H   UNL     1       3.792  -6.250   4.629  0.00  0.00    +0.210 HD
ENDBRANCH  21  28
BRANCH  19  30
ATOM     30  O   UNL     1       5.104  -2.362   6.980  0.00  0.00    -0.388 OA
ATOM     31  H   UNL     1       6.039  -2.607   6.965  0.00  0.00    +0.210 HD
ENDBRANCH  19  30
TORSDOF 3
