REMARK  Name = ZINC63558221
REMARK  11 active torsions:
REMARK  status: ('A' for Active; 'I' for Inactive)
REMARK    1  A    between atoms: C_1  and  C_2
REMARK    2  A    between atoms: C_3  and  C_19
REMARK    3  A    between atoms: C_5  and  C_7
REMARK    4  A    between atoms: C_9  and  O_17
REMARK    5  A    between atoms: C_10  and  O_15
REMARK    6  A    between atoms: C_11  and  O_13
REMARK    7  A    between atoms: O_13  and  C_14
REMARK    8  A    between atoms: O_15  and  C_16
REMARK    9  A    between atoms: O_17  and  C_18
REMARK   10  A    between atoms: C_19  and  S_20
REMARK   11  A    between atoms: S_20  and  C_21
REMARK                            x       y       z     vdW  Elec       q    Type
REMARK                         _______ _______ _______ _____ _____    ______ ____
ROOT
ATOM      1  C   UNL     1      -0.018   1.503   0.010  0.00  0.00    +0.088 C 
ATOM      2  C   UNL     1       0.002  -0.004   0.002  0.00  0.00    +0.127 A 
ATOM      3  C   UNL     1      -1.070  -0.816   0.003  0.00  0.00    +0.093 A 
ATOM      4  N   UNL     1      -0.627  -2.083  -0.006  0.00  0.00    -0.213 NA
ATOM      5  C   UNL     1       0.686  -2.068  -0.012  0.00  0.00    +0.228 A 
ATOM      6  O   UNL     1       1.099  -0.788  -0.013  0.00  0.00    -0.440 OA
ENDROOT
BRANCH   5   7
ATOM      7  C   UNL     1       1.562  -3.257  -0.022  0.00  0.00    +0.044 A 
ATOM      8  C   UNL     1       1.004  -4.537  -0.032  0.00  0.00    +0.062 A 
ATOM      9  C   UNL     1       1.827  -5.649  -0.041  0.00  0.00    +0.166 A 
ATOM     10  C   UNL     1       3.209  -5.493  -0.041  0.00  0.00    +0.204 A 
ATOM     11  C   UNL     1       3.768  -4.219  -0.031  0.00  0.00    +0.166 A 
ATOM     12  C   UNL     1       2.950  -3.104  -0.028  0.00  0.00    +0.062 A 
BRANCH  11  13
ATOM     13  O   UNL     1       5.120  -4.070  -0.031  0.00  0.00    -0.491 OA
ATOM     14  C   UNL     1       5.625  -2.733  -0.021  0.00  0.00    +0.277 C 
ENDBRANCH  11  13
BRANCH  10  15
ATOM     15  O   UNL     1       4.016  -6.588  -0.050  0.00  0.00    -0.488 OA
ATOM     16  C   UNL     1       4.400  -7.101  -1.327  0.00  0.00    +0.277 C 
ENDBRANCH  10  15
BRANCH   9  17
ATOM     17  O   UNL     1       1.283  -6.896  -0.050  0.00  0.00    -0.491 OA
ATOM     18  C   UNL     1      -0.143  -6.982  -0.050  0.00  0.00    +0.277 C 
ENDBRANCH   9  17
ENDBRANCH   5   7
BRANCH   3  19
ATOM     19  C   UNL     1      -2.513  -0.381   0.011  0.00  0.00    +0.131 C 
BRANCH  19  20
ATOM     20  S   UNL     1      -3.100  -0.197  -1.695  0.00  0.00    -0.109 S 
BRANCH  20  21
ATOM     21  C   UNL     1      -4.827   0.324  -1.512  0.00  0.00    +0.237 C 
ATOM     22  N   UNL     1      -4.898   1.579  -0.753  0.00  0.00    -0.354 N 
ATOM     23  C   UNL     1      -5.591   1.347   0.321  0.00  0.00    +0.080 A 
ATOM     24  C   UNL     1      -5.998   2.198   1.454  0.00  0.00    +0.030 A 
ATOM     25  C   UNL     1      -6.737   1.625   2.434  0.00  0.00    +0.022 A 
ATOM     26  C   UNL     1      -7.097   0.267   2.365  0.00  0.00    +0.113 A 
ATOM     27  N   UNL     1      -6.758  -0.517   1.384  0.00  0.00    -0.236 NA
ATOM     28  C   UNL     1      -6.021  -0.077   0.339  0.00  0.00    +0.152 A 
ATOM     29  N   UNL     1      -5.574  -0.673  -0.734  0.00  0.00    -0.340 N 
ATOM     30  H   UNL     1      -5.710  -1.603  -0.973  0.00  0.00    +0.164 HD
ATOM     31  H   UNL     1      -4.500   2.426  -1.008  0.00  0.00    +0.163 HD
ENDBRANCH  20  21
ENDBRANCH  19  20
ENDBRANCH   3  19
TORSDOF 7
