REMARK  Name = ZINC06911635
REMARK  10 active torsions:
REMARK  status: ('A' for Active; 'I' for Inactive)
REMARK    1  A    between atoms: C_1  and  C_2
REMARK    2  A    between atoms: C_3  and  C_7
REMARK    3  A    between atoms: C_10  and  S_15
REMARK    4  A    between atoms: N_11  and  C_12
REMARK    5  A    between atoms: C_12  and  C_13
REMARK    6  A    between atoms: S_15  and  C_16
REMARK    7  A    between atoms: C_16  and  C_18
REMARK    8  A    between atoms: C_16  and  C_19
REMARK    9  A    between atoms: N_21  and  C_22
REMARK   10  A    between atoms: C_25  and  C_28
REMARK                            x       y       z     vdW  Elec       q    Type
REMARK                         _______ _______ _______ _____ _____    ______ ____
ROOT
ATOM      1  C   UNL     1       2.404  -4.244  -0.263  0.00  0.00    +0.137 C 
ATOM      2  C   UNL     1       2.183  -4.646  -1.722  0.00  0.00    +0.029 C 
ENDROOT
BRANCH   1   3
ATOM      3  C   UNL     1       2.398  -2.741  -0.150  0.00  0.00    +0.230 C 
ATOM      4  O   UNL     1       3.444  -2.127  -0.175  0.00  0.00    -0.274 OA
ATOM      5  N   UNL     1       1.231  -2.079  -0.021  0.00  0.00    -0.285 N 
ATOM      6  H   UNL     1       0.400  -2.573   0.060  0.00  0.00    +0.155 HD
BRANCH   5   7
ATOM      7  C   UNL     1       1.218  -0.685  -0.006  0.00  0.00    +0.033 A 
ATOM      8  C   UNL     1       2.263   0.012   0.593  0.00  0.00    +0.024 A 
ATOM      9  C   UNL     1       2.254   1.389   0.609  0.00  0.00    +0.015 A 
ATOM     10  C   UNL     1       1.193   2.086   0.025  0.00  0.00    +0.037 A 
ATOM     11  C   UNL     1       0.145   1.383  -0.576  0.00  0.00    +0.015 A 
ATOM     12  C   UNL     1       0.161   0.006  -0.589  0.00  0.00    +0.024 A 
BRANCH  10  13
ATOM     13  C   UNL     1       1.179   3.562   0.041  0.00  0.00    +0.242 C 
ATOM     14  O   UNL     1       2.091   4.172   0.564  0.00  0.00    -0.270 OA
ATOM     15  N   UNL     1       0.155   4.233  -0.523  0.00  0.00    -0.325 N 
ATOM     16  H   UNL     1      -0.572   3.745  -0.940  0.00  0.00    +0.145 HD
ATOM     17  H   UNL     1       0.146   5.202  -0.512  0.00  0.00    +0.145 HD
ENDBRANCH  10  13
ENDBRANCH   5   7
ENDBRANCH   1   3
BRANCH   1  18
ATOM     18  S   UNL     1       3.998  -4.885   0.306  0.00  0.00    -0.073 S 
BRANCH  18  22
ATOM     19  C   UNL     1       3.873  -8.791   0.304  0.00  0.00    +0.168 A 
ATOM     20  N   UNL     1       2.675  -8.463  -0.121  0.00  0.00    -0.128 NA
ATOM     21  N   UNL     1       2.561  -7.184  -0.169  0.00  0.00    -0.122 NA
ATOM     22  C   UNL     1       3.681  -6.616   0.213  0.00  0.00    +0.193 A 
ATOM     23  N   UNL     1       4.555  -7.619   0.532  0.00  0.00    -0.298 N 
BRANCH  19  26
ATOM     24  C   UNL     1       2.447 -11.108   1.862  0.00  0.00    +0.087 C 
ATOM     25  C   UNL     1       3.786 -11.179   1.175  0.00  0.00    +0.112 A 
ATOM     26  C   UNL     1       4.390 -10.162   0.502  0.00  0.00    +0.060 A 
ATOM     27  C   UNL     1       5.665 -10.707   0.020  0.00  0.00    +0.053 A 
ATOM     28  C   UNL     1       5.705 -11.983   0.437  0.00  0.00    +0.196 A 
ATOM     29  O   UNL     1       4.583 -12.255   1.120  0.00  0.00    -0.467 OA
ENDBRANCH  19  26
BRANCH  23  30
ATOM     30  C   UNL     1       5.930  -7.474   1.015  0.00  0.00    +0.152 C 
BRANCH  30  31
ATOM     31  C   UNL     1       5.943  -7.534   2.521  0.00  0.00    -0.013 C 
ATOM     32  C   UNL     1       6.704  -8.404   3.136  0.00  0.00    +0.005 C 
ENDBRANCH  30  31
ENDBRANCH  23  30
ENDBRANCH  18  22
ENDBRANCH   1  18
TORSDOF 8
