REMARK  Name = ZINC11591138
REMARK  5 active torsions:
REMARK  status: ('A' for Active; 'I' for Inactive)
REMARK    1  A    between atoms: C_1  and  C_2
REMARK    2  A    between atoms: C_6  and  O_8
REMARK    3  A    between atoms: O_8  and  C_9
REMARK    4  A    between atoms: C_9  and  C_10
REMARK    5  A    between atoms: C_10  and  N_11
REMARK                            x       y       z     vdW  Elec       q    Type
REMARK                         _______ _______ _______ _____ _____    ______ ____
ROOT
ATOM      1  N   UNL     1      -0.545   7.775  -1.203  0.00  0.00    -0.221 N 
ATOM      2  C   UNL     1      -1.231   8.115  -2.314  0.00  0.00    +0.251 C 
ATOM      3  O   UNL     1      -2.434   8.129  -2.459  0.00  0.00    -0.272 OA
ATOM      4  C   UNL     1      -0.181   8.476  -3.341  0.00  0.00    +0.144 C 
ATOM      5  C   UNL     1      -0.339   9.931  -3.771  0.00  0.00    +0.081 C 
ATOM      6  C   UNL     1      -1.545  10.027  -4.716  0.00  0.00    +0.232 C 
ATOM      7  O   UNL     1      -1.264   9.261  -5.888  0.00  0.00    -0.492 OA
ATOM      8  C   UNL     1      -0.806   7.992  -5.729  0.00  0.00    +0.126 A 
ATOM      9  C   UNL     1      -0.271   7.558  -4.527  0.00  0.00    +0.027 A 
ATOM     10  C   UNL     1       0.191   6.258  -4.410  0.00  0.00    +0.010 A 
ATOM     11  C   UNL     1       0.116   5.391  -5.483  0.00  0.00    +0.001 A 
ATOM     12  C   UNL     1      -0.421   5.821  -6.682  0.00  0.00    +0.004 A 
ATOM     13  C   UNL     1      -0.881   7.116  -6.806  0.00  0.00    +0.046 A 
ATOM     14  N   UNL     1       1.091   8.283  -2.634  0.00  0.00    -0.281 N 
ATOM     15  C   UNL     1       0.776   7.877  -1.389  0.00  0.00    +0.310 C 
ATOM     16  O   UNL     1       1.601   7.628  -0.531  0.00  0.00    -0.252 OA
ATOM     17  H   UNL     1       1.981   8.424  -2.992  0.00  0.00    +0.152 HD
ENDROOT
BRANCH   1  18
ATOM     18  C   UNL     1      -1.171   7.351   0.052  0.00  0.00    +0.159 C 
BRANCH  18  19
ATOM     19  C   UNL     1      -1.350   5.832   0.046  0.00  0.00    +0.248 C 
BRANCH  19  20
ATOM     20  O   UNL     1      -0.069   5.201   0.030  0.00  0.00    -0.490 OA
BRANCH  20  26
ATOM     21  C   UNL     1       2.490   1.045  -0.016  0.00  0.00    +0.044 C 
ATOM     22  C   UNL     1       1.176   1.782   0.000  0.00  0.00    -0.047 A 
ATOM     23  C   UNL     1      -0.013   1.076   0.008  0.00  0.00    +0.003 A 
ATOM     24  C   UNL     1      -1.220   1.750   0.017  0.00  0.00    +0.004 A 
ATOM     25  C   UNL     1      -1.241   3.131   0.031  0.00  0.00    +0.045 A 
ATOM     26  C   UNL     1      -0.050   3.842   0.023  0.00  0.00    +0.121 A 
ATOM     27  C   UNL     1       1.160   3.163   0.007  0.00  0.00    +0.049 A 
ENDBRANCH  20  26
ENDBRANCH  19  20
ENDBRANCH  18  19
ENDBRANCH   1  18
TORSDOF 4
