REMARK  Name = ZINC16115437
REMARK  7 active torsions:
REMARK  status: ('A' for Active; 'I' for Inactive)
REMARK    1  A    between atoms: C_1  and  C_2
REMARK    2  A    between atoms: C_5  and  N_8
REMARK    3  A    between atoms: C_9  and  C_11
REMARK    4  A    between atoms: C_11  and  C_12
REMARK    5  A    between atoms: N_18  and  N_19
REMARK    6  A    between atoms: C_20  and  C_21
REMARK    7  A    between atoms: C_24  and  C_26
REMARK                            x       y       z     vdW  Elec       q    Type
REMARK                         _______ _______ _______ _____ _____    ______ ____
ROOT
ATOM      1  C   UNL     1       0.424  -6.867   2.557  0.00  0.00    +0.149 C 
ATOM      2  C   UNL     1       0.532  -8.383   2.589  0.00  0.00    +0.233 C 
ATOM      3  O   UNL     1      -0.353  -9.101   2.175  0.00  0.00    -0.274 OA
ATOM      4  N   UNL     1       1.652  -8.870   3.096  0.00  0.00    -0.263 N 
ATOM      5  C   UNL     1       2.663  -8.060   3.569  0.00  0.00    +0.183 C 
ATOM      6  N   UNL     1       3.816  -8.422   4.093  0.00  0.00    -0.127 NA
ATOM      7  S   UNL     1       2.042  -6.405   3.304  0.00  0.00    -0.075 S 
ATOM      8  H   UNL     1       1.766  -9.832   3.137  0.00  0.00    +0.157 HD
ENDROOT
BRANCH   6   9
ATOM      9  N   UNL     1       4.106  -9.673   4.213  0.00  0.00    -0.152 NA
ATOM     10  C   UNL     1       5.253 -10.033   4.734  0.00  0.00    +0.181 C 
BRANCH  10  11
ATOM     11  C   UNL     1       5.572 -11.407   4.865  0.00  0.00    +0.148 A 
ATOM     12  C   UNL     1       6.736 -11.922   5.399  0.00  0.00    +0.051 A 
ATOM     13  C   UNL     1       6.628 -13.317   5.332  0.00  0.00    +0.050 A 
ATOM     14  C   UNL     1       5.420 -13.600   4.768  0.00  0.00    +0.136 A 
ATOM     15  O   UNL     1       4.788 -12.441   4.495  0.00  0.00    -0.454 OA
BRANCH  14  16
ATOM     16  C   UNL     1       4.889 -14.951   4.504  0.00  0.00    +0.017 A 
ATOM     17  C   UNL     1       5.640 -16.079   4.845  0.00  0.00    +0.013 A 
ATOM     18  C   UNL     1       5.138 -17.339   4.595  0.00  0.00    +0.021 A 
ATOM     19  C   UNL     1       3.892 -17.488   4.009  0.00  0.00    +0.041 A 
ATOM     20  C   UNL     1       3.142 -16.374   3.669  0.00  0.00    +0.021 A 
ATOM     21  C   UNL     1       3.630 -15.109   3.918  0.00  0.00    +0.013 A 
ATOM     22 CL   UNL     1       3.268 -19.078   3.698  0.00  0.00    -0.084 Cl
ENDBRANCH  14  16
ENDBRANCH  10  11
ENDBRANCH   6   9
BRANCH   1  23
ATOM     23  C   UNL     1       0.309  -6.349   1.121  0.00  0.00    +0.120 C 
BRANCH  23  25
ATOM     24  N   UNL     1       0.059  -4.170  -0.021  0.00  0.00    -0.285 N 
ATOM     25  C   UNL     1       0.175  -4.848   1.138  0.00  0.00    +0.219 C 
ATOM     26  O   UNL     1       0.173  -4.251   2.193  0.00  0.00    -0.275 OA
ATOM     27  H   UNL     1      -0.017  -4.651  -0.860  0.00  0.00    +0.155 HD
BRANCH  24  32
ATOM     28  C   UNL     1       0.008   1.503   0.007  0.00  0.00    +0.044 C 
ATOM     29  C   UNL     1       0.022  -0.004  -0.001  0.00  0.00    -0.050 A 
ATOM     30  C   UNL     1       0.777  -0.692   0.931  0.00  0.00    +0.005 A 
ATOM     31  C   UNL     1       0.791  -2.073   0.927  0.00  0.00    +0.023 A 
ATOM     32  C   UNL     1       0.046  -2.771  -0.014  0.00  0.00    +0.033 A 
ATOM     33  C   UNL     1      -0.712  -2.077  -0.948  0.00  0.00    +0.023 A 
ATOM     34  C   UNL     1      -0.726  -0.696  -0.936  0.00  0.00    +0.005 A 
ENDBRANCH  24  32
ENDBRANCH  23  25
ENDBRANCH   1  23
TORSDOF 6
