REMARK  Name = ZINC24085460
REMARK  7 active torsions:
REMARK  status: ('A' for Active; 'I' for Inactive)
REMARK    1  A    between atoms: C_5  and  C_7
REMARK    2  A    between atoms: C_7  and  O_8
REMARK    3  A    between atoms: O_8  and  C_9
REMARK    4  A    between atoms: C_9  and  C_10
REMARK    5  A    between atoms: C_10  and  C_12
REMARK    6  A    between atoms: C_10  and  O_27
REMARK    7  A    between atoms: C_12  and  N_13
REMARK                            x       y       z     vdW  Elec       q    Type
REMARK                         _______ _______ _______ _____ _____    ______ ____
ROOT
ATOM      1  C   UNL     1      -1.780  -6.043   0.111  0.00  0.00    +0.165 C 
ENDROOT
BRANCH   1   2
ATOM      2  N   UNL     1      -3.190  -6.439   0.122  0.00  0.00    -0.200 N 
ATOM      3  C   UNL     1      -4.052  -6.484   1.231  0.00  0.00    +0.061 A 
ATOM      4  C   UNL     1      -3.758  -6.163   2.555  0.00  0.00    +0.025 A 
ATOM      5  C   UNL     1      -4.730  -6.260   3.543  0.00  0.00    +0.002 A 
ATOM      6  C   UNL     1      -6.004  -6.668   3.278  0.00  0.00    +0.009 A 
ATOM      7  C   UNL     1      -6.348  -7.002   1.957  0.00  0.00    -0.014 A 
ATOM      8  C   UNL     1      -5.354  -6.900   0.962  0.00  0.00    +0.031 A 
ATOM      9  C   UNL     1      -5.658  -7.225  -0.365  0.00  0.00    +0.118 A 
ATOM     10  C   UNL     1      -6.894  -7.635  -0.704  0.00  0.00    +0.029 A 
ATOM     11  C   UNL     1      -7.888  -7.738   0.277  0.00  0.00    +0.003 A 
ATOM     12  C   UNL     1      -7.631  -7.433   1.582  0.00  0.00    +0.009 A 
ATOM     13  S   UNL     1      -4.117  -6.929  -1.186  0.00  0.00    +0.075 S 
ATOM     14  O   UNL     1      -3.616  -8.184  -1.627  0.00  0.00    -0.150 OA
ATOM     15  O   UNL     1      -4.287  -5.807  -2.041  0.00  0.00    -0.150 OA
ENDBRANCH   1   2
BRANCH   1  16
ATOM     16  C   UNL     1      -1.679  -4.521  -0.007  0.00  0.00    +0.159 C 
BRANCH  16  17
ATOM     17  O   UNL     1      -2.304  -4.095  -1.220  0.00  0.00    -0.388 OA
ATOM     18  H   UNL     1      -1.909  -4.470  -2.018  0.00  0.00    +0.210 HD
ENDBRANCH  16  17
BRANCH  16  19
ATOM     19  C   UNL     1      -0.206  -4.106  -0.019  0.00  0.00    +0.193 C 
BRANCH  19  20
ATOM     20  O   UNL     1      -0.113  -2.680  -0.012  0.00  0.00    -0.373 OA
BRANCH  20  21
ATOM     21  C   UNL     1       1.228  -2.186  -0.022  0.00  0.00    +0.198 C 
BRANCH  21  26
ATOM     22  C   UNL     1      -0.017   1.378   0.010  0.00  0.00    +0.001 A 
ATOM     23  C   UNL     1       1.171   2.087   0.002  0.00  0.00    +0.003 A 
ATOM     24  C   UNL     1       2.377   1.414  -0.013  0.00  0.00    +0.039 A 
ATOM     25  C   UNL     1       2.397   0.029  -0.021  0.00  0.00    +0.129 A 
ATOM     26  C   UNL     1       1.208  -0.679  -0.013  0.00  0.00    +0.013 A 
ATOM     27  C   UNL     1       0.002  -0.004   0.002  0.00  0.00    +0.009 A 
ATOM     28  F   UNL     1       3.577  -0.630  -0.036  0.00  0.00    -0.205 F 
ENDBRANCH  21  26
ENDBRANCH  20  21
ENDBRANCH  19  20
ENDBRANCH  16  19
ENDBRANCH   1  16
TORSDOF 7
