REMARK  Name = ZINC28849247
REMARK  6 active torsions:
REMARK  status: ('A' for Active; 'I' for Inactive)
REMARK    1  A    between atoms: C_4  and  C_7
REMARK    2  A    between atoms: C_7  and  C_8
REMARK    3  A    between atoms: C_8  and  C_9
REMARK    4  A    between atoms: N_11  and  N_12
REMARK    5  A    between atoms: C_15  and  C_20
REMARK    6  A    between atoms: C_20  and  C_21
REMARK                            x       y       z     vdW  Elec       q    Type
REMARK                         _______ _______ _______ _____ _____    ______ ____
ROOT
ATOM      1  N   UNL     1       1.193   1.683  -0.000  0.00  0.00    -0.137 N 
ATOM      2  C   UNL     1       2.001   1.817   1.070  0.00  0.00    +0.260 C 
ATOM      3  O   UNL     1       1.830   1.358   2.179  0.00  0.00    -0.272 OA
ATOM      4  C   UNL     1       3.168   2.661   0.598  0.00  0.00    +0.167 C 
ATOM      5  N   UNL     1       2.853   2.930  -0.815  0.00  0.00    -0.286 N 
ATOM      6  C   UNL     1       1.684   2.314  -1.072  0.00  0.00    +0.326 C 
ATOM      7  O   UNL     1       1.135   2.333  -2.156  0.00  0.00    -0.251 OA
ATOM      8  H   UNL     1       3.537   3.537  -1.425  0.00  0.00    +0.151 HD
ENDROOT
BRANCH   1  11
ATOM      9  C   UNL     1      -1.187   1.624   0.017  0.00  0.00    +0.230 C 
ATOM     10  O   UNL     1      -1.204   2.837   0.023  0.00  0.00    -0.274 OA
ATOM     11  N   UNL     1      -0.011   0.966   0.007  0.00  0.00    -0.224 N 
ATOM     12  H   UNL     1       0.004  -0.134   0.006  0.00  0.00    +0.174 HD
BRANCH   9  13
ATOM     13  C   UNL     1      -2.482   0.853   0.018  0.00  0.00    +0.102 C 
BRANCH  13  14
ATOM     14  C   UNL     1      -3.658   1.831   0.029  0.00  0.00    +0.044 C 
BRANCH  14  18
ATOM     15  C   UNL     1      -7.329  -0.355   0.035  0.00  0.00    +0.000 A 
ATOM     16  C   UNL     1      -6.729  -0.008   1.231  0.00  0.00    +0.000 A 
ATOM     17  C   UNL     1      -5.541   0.700   1.229  0.00  0.00    +0.003 A 
ATOM     18  C   UNL     1      -4.953   1.060   0.031  0.00  0.00    -0.047 A 
ATOM     19  C   UNL     1      -5.556   0.718  -1.165  0.00  0.00    +0.003 A 
ATOM     20  C   UNL     1      -6.741   0.006  -1.163  0.00  0.00    +0.000 A 
ENDBRANCH  14  18
ENDBRANCH  13  14
ENDBRANCH   9  13
ENDBRANCH   1  11
BRANCH   4  21
ATOM     21  C   UNL     1       4.479   1.881   0.718  0.00  0.00    +0.069 C 
BRANCH  21  22
ATOM     22  C   UNL     1       5.634   2.782   0.361  0.00  0.00    -0.020 A 
ATOM     23  C   UNL     1       6.224   2.884  -0.840  0.00  0.00    +0.087 A 
ATOM     24  N   UNL     1       7.235   3.805  -0.786  0.00  0.00    -0.360 N 
ATOM     25  H   UNL     1       7.827   4.025  -1.687  0.00  0.00    +0.165 HD
ATOM     26  C   UNL     1       7.327   4.325   0.485  0.00  0.00    +0.047 A 
ATOM     27  C   UNL     1       6.328   3.707   1.260  0.00  0.00    +0.003 A 
ATOM     28  C   UNL     1       6.183   4.043   2.607  0.00  0.00    +0.010 A 
ATOM     29  C   UNL     1       7.014   4.972   3.167  0.00  0.00    +0.001 A 
ATOM     30  C   UNL     1       8.001   5.585   2.408  0.00  0.00    +0.002 A 
ATOM     31  C   UNL     1       8.161   5.268   1.076  0.00  0.00    +0.026 A 
ENDBRANCH  21  22
ENDBRANCH   4  21
TORSDOF 6
