REMARK  Name = ZINC38965510
REMARK  8 active torsions:
REMARK  status: ('A' for Active; 'I' for Inactive)
REMARK    1  A    between atoms: C_1  and  O_2
REMARK    2  A    between atoms: O_2  and  C_3
REMARK    3  A    between atoms: C_6  and  S_9
REMARK    4  A    between atoms: S_9  and  N_12
REMARK    5  A    between atoms: C_14  and  N_24
REMARK    6  A    between atoms: N_24  and  C_25
REMARK    7  A    between atoms: C_28  and  C_31
REMARK    8  A    between atoms: C_31  and  O_33
REMARK                            x       y       z     vdW  Elec       q    Type
REMARK                         _______ _______ _______ _____ _____    ______ ____
ROOT
ATOM      1  N   UNL     1       4.010  -3.009  -3.763  0.00  0.00    -0.110 NA
ATOM      2  C   UNL     1       4.793  -3.357  -4.741  0.00  0.00    +0.192 C 
ATOM      3  C   UNL     1       6.288  -3.443  -4.532  0.00  0.00    +0.237 C 
ATOM      4  N   UNL     1       7.121  -3.843  -5.677  0.00  0.00    -0.359 N 
ATOM      5  C   UNL     1       6.533  -4.103  -6.812  0.00  0.00    +0.063 A 
ATOM      6  C   UNL     1       7.320  -4.506  -7.987  0.00  0.00    +0.027 A 
ATOM      7  C   UNL     1       6.676  -4.768  -9.146  0.00  0.00    +0.002 A 
ATOM      8  C   UNL     1       5.279  -4.663  -9.254  0.00  0.00    +0.002 A 
ATOM      9  C   UNL     1       4.491  -4.298  -8.220  0.00  0.00    +0.030 A 
ATOM     10  C   UNL     1       5.060  -4.000  -6.955  0.00  0.00    +0.089 A 
ATOM     11  N   UNL     1       4.287  -3.650  -5.949  0.00  0.00    -0.226 NA
ATOM     12  H   UNL     1       8.084  -3.912  -5.590  0.00  0.00    +0.162 HD
ENDROOT
BRANCH   1  13
ATOM     13  S   UNL     1       2.373  -2.925  -4.004  0.00  0.00    +0.100 S 
ATOM     14  O   UNL     1       1.931  -4.252  -4.251  0.00  0.00    -0.146 OA
ATOM     15  O   UNL     1       2.152  -1.864  -4.924  0.00  0.00    -0.146 OA
BRANCH  13  19
ATOM     16  C   UNL     1       0.506  -1.647  -0.081  0.00  0.00    +0.120 A 
ATOM     17  C   UNL     1       0.899  -0.692  -1.008  0.00  0.00    +0.047 A 
ATOM     18  C   UNL     1       1.469  -1.084  -2.203  0.00  0.00    +0.032 A 
ATOM     19  C   UNL     1       1.647  -2.428  -2.478  0.00  0.00    +0.113 A 
ATOM     20  C   UNL     1       1.256  -3.382  -1.557  0.00  0.00    +0.032 A 
ATOM     21  C   UNL     1       0.691  -2.994  -0.357  0.00  0.00    +0.047 A 
BRANCH  16  23
ATOM     22  C   UNL     1      -0.214   0.140   1.312  0.00  0.00    +0.277 C 
ATOM     23  O   UNL     1      -0.054  -1.264   1.096  0.00  0.00    -0.495 OA
ENDBRANCH  16  23
ENDBRANCH  13  19
ENDBRANCH   1  13
BRANCH   3  24
ATOM     24  N   UNL     1       6.534  -4.397  -3.447  0.00  0.00    -0.318 N 
ATOM     25  H   UNL     1       6.046  -5.235  -3.418  0.00  0.00    +0.148 HD
BRANCH  24  26
ATOM     26  C   UNL     1       7.466  -4.101  -2.459  0.00  0.00    +0.029 A 
ATOM     27  C   UNL     1       7.590  -4.934  -1.350  0.00  0.00    +0.024 A 
ATOM     28  C   UNL     1       8.509  -4.645  -0.374  0.00  0.00    +0.017 A 
ATOM     29  C   UNL     1       9.322  -3.514  -0.493  0.00  0.00    +0.059 A 
ATOM     30  C   UNL     1       9.195  -2.680  -1.609  0.00  0.00    +0.017 A 
ATOM     31  C   UNL     1       8.278  -2.977  -2.584  0.00  0.00    +0.024 A 
BRANCH  29  32
ATOM     32  C   UNL     1      10.310  -3.200   0.554  0.00  0.00    +0.337 C 
ATOM     33  O   UNL     1      10.419  -3.925   1.523  0.00  0.00    -0.245 OA
BRANCH  32  34
ATOM     34  O   UNL     1      11.093  -2.110   0.438  0.00  0.00    -0.477 OA
ATOM     35  H   UNL     1      11.709  -1.987   1.173  0.00  0.00    +0.295 HD
ENDBRANCH  32  34
ENDBRANCH  29  32
ENDBRANCH  24  26
ENDBRANCH   3  24
TORSDOF 7
