REMARK  Name = ZINC09551985
REMARK  9 active torsions:
REMARK  status: ('A' for Active; 'I' for Inactive)
REMARK    1  A    between atoms: C_1  and  C_2
REMARK    2  A    between atoms: C_3  and  C_29
REMARK    3  A    between atoms: C_9  and  C_12
REMARK    4  A    between atoms: C_12  and  O_14
REMARK    5  A    between atoms: O_14  and  C_15
REMARK    6  A    between atoms: C_15  and  C_17
REMARK    7  A    between atoms: C_15  and  C_18
REMARK    8  A    between atoms: N_20  and  C_21
REMARK    9  A    between atoms: C_26  and  C_27
REMARK                            x       y       z     vdW  Elec       q    Type
REMARK                         _______ _______ _______ _____ _____    ______ ____
ROOT
ATOM      1  O   UNL     1      -1.320   3.465   0.009  0.00  0.00    -0.449 OA
ENDROOT
BRANCH   1   2
ATOM      2  C   UNL     1      -1.299   2.118  -0.009  0.00  0.00    +0.340 C 
ATOM      3  O   UNL     1      -2.342   1.495  -0.013  0.00  0.00    -0.245 OA
BRANCH   2  12
ATOM      4  C   UNL     1       0.694  -3.257  -0.090  0.00  0.00    +0.046 C 
ATOM      5  C   UNL     1       1.622  -2.071  -0.083  0.00  0.00    -0.022 A 
ATOM      6  C   UNL     1       2.963  -2.105  -0.095  0.00  0.00    +0.017 A 
ATOM      7  N   UNL     1       3.464  -0.832  -0.083  0.00  0.00    -0.358 N 
ATOM      8  H   UNL     1       4.407  -0.605  -0.088  0.00  0.00    +0.166 HD
ATOM      9  C   UNL     1       2.435   0.078  -0.062  0.00  0.00    +0.047 A 
ATOM     10  C   UNL     1       1.232  -0.657  -0.061  0.00  0.00    +0.004 A 
ATOM     11  C   UNL     1       0.010   0.007  -0.042  0.00  0.00    +0.025 A 
ATOM     12  C   UNL     1      -0.011   1.400  -0.023  0.00  0.00    +0.060 A 
ATOM     13  C   UNL     1       1.193   2.120  -0.025  0.00  0.00    +0.017 A 
ATOM     14  C   UNL     1       2.391   1.470  -0.044  0.00  0.00    +0.027 A 
ATOM     15  C   UNL     1       3.796  -3.362  -0.119  0.00  0.00    +0.063 C 
ENDBRANCH   2  12
ENDBRANCH   1   2
BRANCH   1  16
ATOM     16  C   UNL     1      -2.623   4.104   0.022  0.00  0.00    +0.259 C 
ATOM     17  C   UNL     1      -3.087   4.348  -1.415  0.00  0.00    +0.062 C 
BRANCH  16  18
ATOM     18  C   UNL     1      -2.529   5.421   0.749  0.00  0.00    +0.258 C 
ATOM     19  O   UNL     1      -1.452   5.827   1.131  0.00  0.00    -0.271 OA
ATOM     20  N   UNL     1      -3.642   6.147   0.975  0.00  0.00    -0.281 N 
ATOM     21  H   UNL     1      -4.493   5.855   0.614  0.00  0.00    +0.155 HD
BRANCH  20  22
ATOM     22  C   UNL     1      -3.570   7.318   1.729  0.00  0.00    +0.051 A 
ATOM     23  C   UNL     1      -2.445   8.127   1.653  0.00  0.00    +0.024 A 
ATOM     24  C   UNL     1      -2.377   9.289   2.397  0.00  0.00    +0.002 A 
ATOM     25  C   UNL     1      -3.423   9.650   3.230  0.00  0.00    +0.001 A 
ATOM     26  C   UNL     1      -4.546   8.856   3.321  0.00  0.00    +0.021 A 
ATOM     27  C   UNL     1      -4.631   7.681   2.571  0.00  0.00    +0.073 A 
BRANCH  27  28
ATOM     28  C   UNL     1      -5.794   6.851   2.663  0.00  0.00    +0.101 C 
ATOM     29  N   UNL     1      -6.717   6.192   2.735  0.00  0.00    -0.191 NA
ENDBRANCH  27  28
ENDBRANCH  20  22
ENDBRANCH  16  18
ENDBRANCH   1  16
TORSDOF 6
