REMARK  Name = ZINC09276046
REMARK  9 active torsions:
REMARK  status: ('A' for Active; 'I' for Inactive)
REMARK    1  A    between atoms: C_1  and  C_2
REMARK    2  A    between atoms: C_2  and  C_3
REMARK    3  A    between atoms: C_2  and  C_4
REMARK    4  A    between atoms: N_12  and  C_13
REMARK    5  A    between atoms: C_13  and  C_15
REMARK    6  A    between atoms: C_18  and  S_21
REMARK    7  A    between atoms: S_21  and  N_24
REMARK    8  A    between atoms: N_31  and  C_32
REMARK    9  A    between atoms: C_32  and  C_33
REMARK                            x       y       z     vdW  Elec       q    Type
REMARK                         _______ _______ _______ _____ _____    ______ ____
ROOT
ATOM      1  C   UNL     1       1.708  -4.427  -1.588  0.00  0.00    +0.269 C 
ATOM      2  O   UNL     1       1.932  -5.261  -0.728  0.00  0.00    -0.268 OA
ENDROOT
BRANCH   1  11
ATOM      3  C   UNL     1       7.687  -7.814  -3.098  0.00  0.00    -0.044 A 
ATOM      4  C   UNL     1       7.733  -6.992  -4.212  0.00  0.00    +0.006 A 
ATOM      5  C   UNL     1       6.751  -6.060  -4.450  0.00  0.00    +0.027 A 
ATOM      6  C   UNL     1       5.668  -5.916  -3.567  0.00  0.00    +0.058 A 
ATOM      7  C   UNL     1       5.649  -6.763  -2.450  0.00  0.00    +0.039 A 
ATOM      8  C   UNL     1       6.632  -7.694  -2.212  0.00  0.00    +0.021 A 
ATOM      9  S   UNL     1       4.167  -6.280  -1.599  0.00  0.00    -0.052 S 
ATOM     10  C   UNL     1       3.638  -5.044  -2.694  0.00  0.00    +0.168 A 
ATOM     11  N   UNL     1       2.554  -4.280  -2.613  0.00  0.00    -0.152 NA
ATOM     12  N   UNL     1       4.603  -5.039  -3.652  0.00  0.00    -0.310 N 
BRANCH   3  14
ATOM     13  C   UNL     1       8.830  -9.808  -4.030  0.00  0.00    +0.012 C 
ATOM     14  C   UNL     1       8.775  -8.829  -2.856  0.00  0.00    +0.013 C 
ATOM     15  C   UNL     1      10.120  -8.114  -2.724  0.00  0.00    +0.012 C 
ENDBRANCH   3  14
BRANCH  12  16
ATOM     16  C   UNL     1       4.513  -4.104  -4.777  0.00  0.00    +0.212 C 
BRANCH  16  17
ATOM     17  C   UNL     1       5.200  -2.850  -4.427  0.00  0.00    -0.084 C 
ATOM     18  C   UNL     1       5.748  -1.850  -4.149  0.00  0.00    +0.005 C 
ENDBRANCH  16  17
ENDBRANCH  12  16
ENDBRANCH   1  11
BRANCH   1  19
ATOM     19  C   UNL     1       0.499  -3.576  -1.497  0.00  0.00    +0.039 A 
ATOM     20  C   UNL     1      -0.385  -3.727  -0.429  0.00  0.00    +0.015 A 
ATOM     21  C   UNL     1      -1.510  -2.931  -0.351  0.00  0.00    +0.029 A 
ATOM     22  C   UNL     1      -1.761  -1.986  -1.329  0.00  0.00    +0.106 A 
ATOM     23  C   UNL     1      -0.891  -1.835  -2.394  0.00  0.00    +0.029 A 
ATOM     24  C   UNL     1       0.240  -2.621  -2.480  0.00  0.00    +0.015 A 
BRANCH  22  25
ATOM     25  S   UNL     1      -3.200  -0.975  -1.222  0.00  0.00    +0.061 S 
ATOM     26  O   UNL     1      -4.139  -1.686  -0.427  0.00  0.00    -0.153 OA
ATOM     27  O   UNL     1      -3.493  -0.544  -2.544  0.00  0.00    -0.153 OA
BRANCH  25  28
ATOM     28  N   UNL     1      -2.784   0.380  -0.365  0.00  0.00    -0.177 NA
ATOM     29  C   UNL     1      -2.281   1.542  -1.038  0.00  0.00    +0.109 C 
ATOM     30  C   UNL     1      -0.749   1.592  -1.257  0.00  0.00    +0.017 C 
ATOM     31  C   UNL     1      -0.013   1.086   0.008  0.00  0.00    +0.001 C 
ATOM     32  C   UNL     1      -0.703   1.564   1.253  0.00  0.00    +0.001 C 
ATOM     33  C   UNL     1      -1.581   0.401   1.701  0.00  0.00    +0.017 C 
ATOM     34  C   UNL     1      -2.928   0.411   1.129  0.00  0.00    +0.109 C 
ENDBRANCH  25  28
ENDBRANCH  22  25
ENDBRANCH   1  19
TORSDOF 7
