REMARK  Name = ZINC04425154
REMARK  3 active torsions:
REMARK  status: ('A' for Active; 'I' for Inactive)
REMARK    1  A    between atoms: C_7  and  C_23
REMARK    2  A    between atoms: C_9  and  C_11
REMARK    3  A    between atoms: C_20  and  N_44
REMARK                            x       y       z     vdW  Elec       q    Type
REMARK                         _______ _______ _______ _____ _____    ______ ____
ROOT
ATOM      1  C   UNL     1      -0.731   1.611   1.282  0.00  0.00    +0.012 C 
ATOM      2  C   UNL     1      -0.753   3.141   1.312  0.00  0.00    +0.016 C 
ATOM      3  C   UNL     1      -1.495   3.665   0.081  0.00  0.00    -0.011 C 
ATOM      4  C   UNL     1      -0.779   3.191  -1.185  0.00  0.00    +0.007 C 
ATOM      5  C   UNL     1      -0.757   1.661  -1.216  0.00  0.00    -0.011 C 
ATOM      6  C   UNL     1      -0.016   1.137   0.015  0.00  0.00    +0.016 C 
ATOM      7  C   UNL     1      -2.192   1.130  -1.212  0.00  0.00    -0.009 C 
ATOM      8  C   UNL     1      -2.908   1.605   0.055  0.00  0.00    -0.070 C 
ATOM      9  C   UNL     1      -2.930   3.135   0.085  0.00  0.00    -0.009 C 
ATOM     10  C   UNL     1      -2.166   1.081   1.286  0.00  0.00    +0.000 C 
ENDROOT
BRANCH   1  19
ATOM     11  C   UNL     1       1.153  -0.880   6.855  0.00  0.00    +0.001 A 
ATOM     12  C   UNL     1      -0.234  -0.934   6.734  0.00  0.00    +0.002 A 
ATOM     13  C   UNL     1      -0.861  -0.457   5.625  0.00  0.00    +0.028 A 
ATOM     14  C   UNL     1      -0.102   0.099   4.579  0.00  0.00    +0.072 A 
ATOM     15  C   UNL     1       1.309   0.151   4.706  0.00  0.00    +0.015 A 
ATOM     16  C   UNL     1       1.921  -0.348   5.863  0.00  0.00    +0.011 A 
ATOM     17  C   UNL     1       2.072   0.713   3.650  0.00  0.00    +0.074 A 
ATOM     18  C   UNL     1       1.388   1.181   2.535  0.00  0.00    +0.039 A 
ATOM     19  C   UNL     1      -0.001   1.095   2.495  0.00  0.00    +0.049 A 
ATOM     20  N   UNL     1      -0.691   0.574   3.479  0.00  0.00    -0.251 NA
BRANCH  17  21
ATOM     21  C   UNL     1       3.546   0.792   3.732  0.00  0.00    +0.387 C 
ATOM     22  O   UNL     1       4.115   0.476   4.757  0.00  0.00    -0.241 OA
ATOM     23  O   UNL     1       4.257   1.215   2.669  0.00  0.00    -0.241 OA
ENDBRANCH  17  21
ENDBRANCH   1  19
BRANCH   8  26
ATOM     24  H   UNL     1      -4.796   1.428  -0.745  0.00  0.00    -0.089 HD
ATOM     25  H   UNL     1      -4.298   0.087   0.104  0.00  0.00    -0.089 HD
ATOM     26  N   UNL     1      -4.294   1.106   0.080  0.00  0.00    +0.382 N 
ATOM     27  H   UNL     1      -4.766   1.462   0.920  0.00  0.00    -0.089 HD
ENDBRANCH   8  26
TORSDOF 3
