REMARK  Name = ZINC09740423
REMARK  7 active torsions:
REMARK  status: ('A' for Active; 'I' for Inactive)
REMARK    1  A    between atoms: C_1  and  C_2
REMARK    2  A    between atoms: C_3  and  C_9
REMARK    3  A    between atoms: C_4  and  C_8
REMARK    4  A    between atoms: N_5  and  C_7
REMARK    5  A    between atoms: N_20  and  C_21
REMARK    6  A    between atoms: C_21  and  C_23
REMARK    7  A    between atoms: C_21  and  C_24
REMARK                            x       y       z     vdW  Elec       q    Type
REMARK                         _______ _______ _______ _____ _____    ______ ____
ROOT
ATOM      1  C   UNL     1       5.169  -0.433  -2.151  0.00  0.00    +0.197 C 
ATOM      2  N   UNL     1       6.442   0.258  -2.386  0.00  0.00    -0.321 N 
ATOM      3  C   UNL     1       6.518   1.625  -2.140  0.00  0.00    +0.041 A 
ATOM      4  C   UNL     1       7.397   2.442  -2.831  0.00  0.00    +0.024 A 
ATOM      5  C   UNL     1       7.442   3.793  -2.546  0.00  0.00    +0.002 A 
ATOM      6  C   UNL     1       6.616   4.337  -1.575  0.00  0.00    +0.001 A 
ATOM      7  C   UNL     1       5.732   3.537  -0.880  0.00  0.00    +0.015 A 
ATOM      8  C   UNL     1       5.673   2.174  -1.160  0.00  0.00    +0.058 A 
ATOM      9  C   UNL     1       4.731   1.282  -0.458  0.00  0.00    +0.251 C 
ATOM     10  O   UNL     1       4.107   1.684   0.505  0.00  0.00    -0.270 OA
ATOM     11  N   UNL     1       4.573   0.015  -0.892  0.00  0.00    -0.268 N 
ATOM     12  H   UNL     1       7.217  -0.229  -2.707  0.00  0.00    +0.148 HD
ENDROOT
BRANCH   1  15
ATOM     13  C   UNL     1       2.581   1.388  -1.986  0.00  0.00    +0.068 C 
ATOM     14  C   UNL     1       3.082   0.672  -3.214  0.00  0.00    +0.067 A 
ATOM     15  C   UNL     1       4.224  -0.132  -3.285  0.00  0.00    +0.034 A 
ATOM     16  C   UNL     1       4.329  -0.595  -4.552  0.00  0.00    +0.043 A 
ATOM     17  N   UNL     1       3.292  -0.098  -5.259  0.00  0.00    -0.271 N 
ATOM     18  N   UNL     1       2.525   0.698  -4.397  0.00  0.00    -0.176 NA
ATOM     19  C   UNL     1       3.017  -0.346  -6.676  0.00  0.00    +0.172 C 
ATOM     20  C   UNL     1       5.409  -1.504  -5.080  0.00  0.00    +0.065 C 
ENDBRANCH   1  15
BRANCH  11  21
ATOM     21  C   UNL     1       3.786  -0.926  -0.092  0.00  0.00    +0.106 C 
ATOM     22  C   UNL     1       3.627  -2.239  -0.861  0.00  0.00    +0.033 C 
BRANCH  21  23
ATOM     23  C   UNL     1       4.492  -1.191   1.212  0.00  0.00    -0.027 A 
ATOM     24  C   UNL     1       3.780  -1.185   2.397  0.00  0.00    +0.005 A 
ATOM     25  C   UNL     1       4.428  -1.428   3.594  0.00  0.00    +0.000 A 
ATOM     26  C   UNL     1       5.788  -1.677   3.606  0.00  0.00    +0.000 A 
ATOM     27  C   UNL     1       6.500  -1.683   2.421  0.00  0.00    +0.000 A 
ATOM     28  C   UNL     1       5.852  -1.439   1.224  0.00  0.00    +0.005 A 
ENDBRANCH  21  23
ENDBRANCH  11  21
TORSDOF 3
