REMARK  Name = ZINC39544492
REMARK  8 active torsions:
REMARK  status: ('A' for Active; 'I' for Inactive)
REMARK    1  A    between atoms: C_1  and  C_2
REMARK    2  A    between atoms: C_2  and  C_3
REMARK    3  A    between atoms: C_3  and  C_4
REMARK    4  A    between atoms: C_3  and  C_5
REMARK    5  A    between atoms: C_3  and  C_6
REMARK    6  A    between atoms: N_14  and  C_18
REMARK    7  A    between atoms: C_18  and  C_19
REMARK    8  A    between atoms: N_21  and  C_22
REMARK                            x       y       z     vdW  Elec       q    Type
REMARK                         _______ _______ _______ _____ _____    ______ ____
ROOT
ATOM      1  C   UNL     1      -1.413  -2.063   0.004  0.00  0.00    -0.005 C 
ATOM      2  C   UNL     1      -0.694  -2.557  -1.253  0.00  0.00    +0.006 C 
ATOM      3  C   UNL     1      -0.664  -4.087  -1.256  0.00  0.00    +0.035 C 
ATOM      4  C   UNL     1      -2.091  -4.624  -1.221  0.00  0.00    +0.113 C 
ATOM      5  C   UNL     1      -2.826  -4.123   0.018  0.00  0.00    +0.035 C 
ATOM      6  C   UNL     1      -2.848  -2.593   0.015  0.00  0.00    +0.006 C 
ATOM      7  C   UNL     1      -2.087  -6.135  -1.257  0.00  0.00    +0.247 C 
ATOM      8  O   UNL     1      -1.596  -6.888  -0.443  0.00  0.00    -0.273 OA
ATOM      9  N   UNL     1      -2.746  -6.470  -2.386  0.00  0.00    -0.215 N 
ATOM     10  C   UNL     1      -3.159  -5.387  -3.055  0.00  0.00    +0.310 C 
ATOM     11  O   UNL     1      -3.775  -5.434  -4.102  0.00  0.00    -0.252 OA
ATOM     12  N   UNL     1      -2.815  -4.240  -2.439  0.00  0.00    -0.285 N 
ATOM     13  H   UNL     1      -3.007  -3.338  -2.740  0.00  0.00    +0.151 HD
ENDROOT
BRANCH   1  14
ATOM     14  C   UNL     1      -1.433  -0.534   0.013  0.00  0.00    -0.032 C 
ATOM     15  C   UNL     1      -2.149  -0.040   1.272  0.00  0.00    +0.011 C 
ATOM     16  C   UNL     1      -2.173  -0.027  -1.227  0.00  0.00    +0.011 C 
BRANCH  14  18
ATOM     17  C   UNL     1      -0.019   1.526   0.010  0.00  0.00    +0.004 C 
ATOM     18  C   UNL     1       0.002  -0.004   0.002  0.00  0.00    +0.003 C 
ENDBRANCH  14  18
ENDBRANCH   1  14
BRANCH   9  19
ATOM     19  C   UNL     1      -2.981  -7.848  -2.824  0.00  0.00    +0.213 C 
BRANCH  19  20
ATOM     20  C   UNL     1      -4.285  -8.342  -2.253  0.00  0.00    +0.231 C 
ATOM     21  O   UNL     1      -4.953  -7.615  -1.549  0.00  0.00    -0.274 OA
ATOM     22  N   UNL     1      -4.709  -9.592  -2.525  0.00  0.00    -0.311 N 
ATOM     23  H   UNL     1      -4.175 -10.174  -3.088  0.00  0.00    +0.149 HD
BRANCH  22  24
ATOM     24  C   UNL     1      -5.977 -10.072  -1.970  0.00  0.00    +0.073 C 
ATOM     25  C   UNL     1      -5.743 -10.616  -0.559  0.00  0.00    +0.022 C 
ATOM     26  C   UNL     1      -7.067 -11.117   0.021  0.00  0.00    +0.002 C 
ATOM     27  C   UNL     1      -7.624 -12.231  -0.869  0.00  0.00    +0.000 C 
ATOM     28  C   UNL     1      -7.858 -11.687  -2.280  0.00  0.00    +0.002 C 
ATOM     29  C   UNL     1      -6.534 -11.186  -2.859  0.00  0.00    +0.022 C 
ENDBRANCH  22  24
ENDBRANCH  19  20
ENDBRANCH   9  19
TORSDOF 5
