REMARK  Name = ZINC20328769
REMARK  13 active torsions:
REMARK  status: ('A' for Active; 'I' for Inactive)
REMARK    1  A    between atoms: C_1  and  C_2
REMARK    2  A    between atoms: C_2  and  O_3
REMARK    3  A    between atoms: O_3  and  C_4
REMARK    4  A    between atoms: C_4  and  C_6
REMARK    5  A    between atoms: C_7  and  C_24
REMARK    6  A    between atoms: C_12  and  C_14
REMARK    7  A    between atoms: C_17  and  O_22
REMARK    8  A    between atoms: C_18  and  O_20
REMARK    9  A    between atoms: O_20  and  C_21
REMARK   10  A    between atoms: O_22  and  C_23
REMARK   11  A    between atoms: C_24  and  S_25
REMARK   12  A    between atoms: S_25  and  C_28
REMARK   13  A    between atoms: C_32  and  C_34
REMARK                            x       y       z     vdW  Elec       q    Type
REMARK                         _______ _______ _______ _____ _____    ______ ____
ROOT
ATOM      1  C   UNL     1      -0.778   1.733   0.728  0.00  0.00    +0.080 C 
ATOM      2  C   UNL     1      -1.969   2.368   0.689  0.00  0.00    +0.045 C 
ATOM      3  N   UNL     1      -2.538   2.726  -0.499  0.00  0.00    -0.271 N 
ATOM      4  C   UNL     1      -1.980   2.485  -1.692  0.00  0.00    +0.304 C 
ATOM      5  O   UNL     1      -2.563   2.842  -2.697  0.00  0.00    -0.252 OA
ATOM      6  N   UNL     1      -0.792   1.859  -1.815  0.00  0.00    -0.288 N 
ATOM      7  C   UNL     1      -0.096   1.432  -0.591  0.00  0.00    +0.144 C 
ATOM      8  H   UNL     1      -3.509   3.243  -0.511  0.00  0.00    +0.156 HD
ATOM      9  H   UNL     1      -0.343   1.666  -2.800  0.00  0.00    +0.151 HD
ENDROOT
BRANCH   7  10
ATOM     10  C   UNL     1       0.118  -0.058  -0.674  0.00  0.00    -0.019 A 
ATOM     11  C   UNL     1       1.349  -0.597  -0.349  0.00  0.00    +0.009 A 
ATOM     12  C   UNL     1       1.548  -1.963  -0.417  0.00  0.00    +0.050 A 
ATOM     13  C   UNL     1       0.516  -2.794  -0.824  0.00  0.00    +0.162 A 
ATOM     14  C   UNL     1      -0.721  -2.251  -1.157  0.00  0.00    +0.162 A 
ATOM     15  C   UNL     1      -0.915  -0.881  -1.080  0.00  0.00    +0.055 A 
BRANCH  14  16
ATOM     16  O   UNL     1      -1.736  -3.062  -1.557  0.00  0.00    -0.491 OA
ATOM     17  C   UNL     1      -2.939  -2.427  -1.995  0.00  0.00    +0.277 C 
ENDBRANCH  14  16
BRANCH  13  18
ATOM     18  O   UNL     1       0.712  -4.138  -0.898  0.00  0.00    -0.491 OA
ATOM     19  C   UNL     1       2.007  -4.625  -0.542  0.00  0.00    +0.277 C 
ENDBRANCH  13  18
ENDBRANCH   7  10
BRANCH   1  20
ATOM     20  C   UNL     1      -0.188   1.362   1.959  0.00  0.00    +0.339 C 
ATOM     21  O   UNL     1       0.717   2.028   2.425  0.00  0.00    -0.245 OA
BRANCH  20  22
ATOM     22  O   UNL     1      -0.630   0.269   2.616  0.00  0.00    -0.462 OA
BRANCH  22  24
ATOM     23  C   UNL     1      -0.584  -1.330   4.427  0.00  0.00    +0.048 C 
ATOM     24  C   UNL     1      -0.034  -0.010   3.884  0.00  0.00    +0.229 C 
ENDBRANCH  22  24
ENDBRANCH  20  22
ENDBRANCH   1  20
BRANCH   2  25
ATOM     25  C   UNL     1      -2.682   2.686   1.978  0.00  0.00    +0.223 C 
BRANCH  25  26
ATOM     26  S   UNL     1      -2.528   4.458   2.333  0.00  0.00    +0.002 S 
ATOM     27  O   UNL     1      -1.177   4.781   2.634  0.00  0.00    -0.169 OA
ATOM     28  O   UNL     1      -3.257   5.215   1.376  0.00  0.00    -0.169 OA
BRANCH  26  29
ATOM     29  C   UNL     1      -3.395   4.694   3.849  0.00  0.00    +0.089 A 
ATOM     30  C   UNL     1      -4.743   5.002   3.832  0.00  0.00    +0.030 A 
ATOM     31  C   UNL     1      -5.425   5.182   5.020  0.00  0.00    +0.040 A 
ATOM     32  C   UNL     1      -4.756   5.064   6.227  0.00  0.00    +0.126 A 
ATOM     33  C   UNL     1      -3.405   4.761   6.242  0.00  0.00    -0.013 A 
ATOM     34  C   UNL     1      -2.726   4.576   5.053  0.00  0.00    +0.033 A 
ATOM     35  C   UNL     1      -2.676   4.632   7.554  0.00  0.00    +0.047 C 
ATOM     36  F   UNL     1      -5.421   5.245   7.389  0.00  0.00    -0.205 F 
ENDBRANCH  26  29
ENDBRANCH  25  26
ENDBRANCH   2  25
TORSDOF 9
