REMARK  Name = ZINC36005418
REMARK  15 active torsions:
REMARK  status: ('A' for Active; 'I' for Inactive)
REMARK    1  A    between atoms: C_1  and  C_2
REMARK    2  A    between atoms: C_2  and  O_3
REMARK    3  A    between atoms: O_3  and  C_4
REMARK    4  A    between atoms: C_4  and  C_6
REMARK    5  A    between atoms: C_7  and  C_24
REMARK    6  A    between atoms: N_8  and  C_23
REMARK    7  A    between atoms: C_12  and  C_14
REMARK    8  A    between atoms: C_17  and  C_20
REMARK    9  A    between atoms: C_20  and  C_21
REMARK   10  A    between atoms: C_20  and  C_22
REMARK   11  A    between atoms: C_24  and  N_25
REMARK   12  A    between atoms: N_33  and  C_34
REMARK   13  A    between atoms: C_34  and  C_35
REMARK   14  A    between atoms: C_34  and  C_36
REMARK   15  A    between atoms: C_34  and  C_37
REMARK                            x       y       z     vdW  Elec       q    Type
REMARK                         _______ _______ _______ _____ _____    ______ ____
ROOT
ATOM      1  C   UNL     1       1.361  -2.358  -2.540  0.00  0.00    +0.080 C 
ATOM      2  C   UNL     1       1.642  -3.676  -2.635  0.00  0.00    +0.041 C 
ATOM      3  N   UNL     1       2.348  -4.172  -3.693  0.00  0.00    -0.260 N 
ATOM      4  C   UNL     1       2.809  -3.416  -4.698  0.00  0.00    +0.307 C 
ATOM      5  O   UNL     1       3.429  -3.948  -5.598  0.00  0.00    -0.252 OA
ATOM      6  N   UNL     1       2.608  -2.084  -4.744  0.00  0.00    -0.288 N 
ATOM      7  C   UNL     1       1.851  -1.451  -3.651  0.00  0.00    +0.144 C 
ATOM      8  C   UNL     1       2.618  -5.611  -3.732  0.00  0.00    +0.139 C 
ATOM      9  H   UNL     1       2.951  -1.555  -5.481  0.00  0.00    +0.151 HD
ENDROOT
BRANCH   7  10
ATOM     10  C   UNL     1       0.652  -0.760  -4.249  0.00  0.00    -0.022 A 
ATOM     11  C   UNL     1      -0.147  -1.426  -5.159  0.00  0.00    +0.006 A 
ATOM     12  C   UNL     1      -1.246  -0.792  -5.708  0.00  0.00    +0.004 A 
ATOM     13  C   UNL     1      -1.546   0.507  -5.345  0.00  0.00    -0.045 A 
ATOM     14  C   UNL     1      -0.748   1.173  -4.434  0.00  0.00    +0.004 A 
ATOM     15  C   UNL     1       0.349   0.538  -3.883  0.00  0.00    +0.006 A 
BRANCH  13  16
ATOM     16  C   UNL     1      -2.744   1.199  -5.944  0.00  0.00    +0.013 C 
ATOM     17  C   UNL     1      -3.712   1.600  -4.829  0.00  0.00    +0.012 C 
ATOM     18  C   UNL     1      -2.287   2.450  -6.697  0.00  0.00    +0.012 C 
ENDBRANCH  13  16
ENDBRANCH   7  10
BRANCH   1  19
ATOM     19  C   UNL     1       0.629  -1.844  -1.445  0.00  0.00    +0.339 C 
ATOM     20  O   UNL     1      -0.545  -1.553  -1.580  0.00  0.00    -0.245 OA
BRANCH  19  21
ATOM     21  O   UNL     1       1.232  -1.676  -0.249  0.00  0.00    -0.462 OA
BRANCH  21  23
ATOM     22  C   UNL     1       1.282  -1.032   2.079  0.00  0.00    +0.048 C 
ATOM     23  C   UNL     1       0.433  -1.152   0.813  0.00  0.00    +0.229 C 
ENDBRANCH  21  23
ENDBRANCH  19  21
ENDBRANCH   1  19
BRANCH   2  24
ATOM     24  C   UNL     1       1.169  -4.614  -1.555  0.00  0.00    +0.136 C 
BRANCH  24  25
ATOM     25  N   UNL     1       0.191  -5.555  -2.118  0.00  0.00    -0.294 NA
ATOM     26  C   UNL     1      -1.029  -4.855  -2.541  0.00  0.00    +0.104 C 
ATOM     27  C   UNL     1      -1.944  -5.835  -3.283  0.00  0.00    +0.124 C 
ATOM     28  N   UNL     1      -2.167  -7.008  -2.425  0.00  0.00    -0.283 N 
ATOM     29  C   UNL     1      -0.993  -7.682  -1.849  0.00  0.00    +0.124 C 
ATOM     30  C   UNL     1      -0.115  -6.630  -1.163  0.00  0.00    +0.104 C 
ATOM     31  C   UNL     1      -3.413  -7.455  -2.172  0.00  0.00    +0.303 C 
ATOM     32  O   UNL     1      -4.366  -6.944  -2.729  0.00  0.00    -0.253 OA
ATOM     33  N   UNL     1      -3.604  -8.467  -1.303  0.00  0.00    -0.294 N 
ATOM     34  H   UNL     1      -2.841  -8.918  -0.910  0.00  0.00    +0.151 HD
BRANCH  33  35
ATOM     35  C   UNL     1      -4.963  -8.884  -0.951  0.00  0.00    +0.028 C 
ATOM     36  C   UNL     1      -5.700  -9.338  -2.213  0.00  0.00    +0.031 C 
ATOM     37  C   UNL     1      -4.899 -10.043   0.046  0.00  0.00    +0.031 C 
ATOM     38  C   UNL     1      -5.711  -7.709  -0.319  0.00  0.00    +0.031 C 
ENDBRANCH  33  35
ENDBRANCH  24  25
ENDBRANCH   2  24
TORSDOF 8
