REMARK  Name = ZINC02732293
REMARK  8 active torsions:
REMARK  status: ('A' for Active; 'I' for Inactive)
REMARK    1  A    between atoms: C_1  and  C_2
REMARK    2  A    between atoms: C_4  and  C_29
REMARK    3  A    between atoms: N_5  and  C_7
REMARK    4  A    between atoms: C_7  and  C_8
REMARK    5  A    between atoms: C_8  and  C_10
REMARK    6  A    between atoms: C_8  and  C_11
REMARK    7  A    between atoms: N_20  and  C_22
REMARK    8  A    between atoms: C_22  and  C_23
REMARK                            x       y       z     vdW  Elec       q    Type
REMARK                         _______ _______ _______ _____ _____    ______ ____
ROOT
ATOM      1  C   UNL     1       4.796   5.158  -8.082  0.00  0.00    +0.108 A 
ATOM      2  N   UNL     1       4.567   5.855  -6.988  0.00  0.00    -0.144 NA
ATOM      3  N   UNL     1       4.209   5.311  -5.907  0.00  0.00    -0.126 NA
ATOM      4  C   UNL     1       4.051   3.998  -5.804  0.00  0.00    +0.187 A 
ATOM      5  S   UNL     1       4.460   3.506  -7.477  0.00  0.00    -0.035 S 
ATOM      6  N   UNL     1       3.673   3.227  -4.714  0.00  0.00    -0.276 N 
ATOM      7  C   UNL     1       3.398   3.840  -3.485  0.00  0.00    +0.146 A 
ATOM      8  C   UNL     1       3.466   5.216  -3.216  0.00  0.00    +0.065 A 
ATOM      9  C   UNL     1       3.129   5.402  -1.919  0.00  0.00    +0.110 A 
ATOM     10  N   UNL     1       2.858   4.194  -1.384  0.00  0.00    -0.265 N 
ATOM     11  N   UNL     1       3.038   3.227  -2.382  0.00  0.00    -0.156 NA
ATOM     12  H   UNL     1       3.588   2.135  -4.816  0.00  0.00    +0.156 HD
ENDROOT
BRANCH   1  13
ATOM     13  C   UNL     1       5.220   5.619  -9.453  0.00  0.00    +0.065 C 
ATOM     14  C   UNL     1       4.171   6.581 -10.014  0.00  0.00    +0.016 C 
BRANCH  13  15
ATOM     15  C   UNL     1       6.569   6.335  -9.355  0.00  0.00    +0.153 C 
BRANCH  15  20
ATOM     16  C   UNL     1       7.325   8.876 -13.618  0.00  0.00    +0.069 C 
ATOM     17  C   UNL     1       7.356   7.806 -12.556  0.00  0.00    +0.078 A 
ATOM     18  C   UNL     1       8.018   6.577 -12.649  0.00  0.00    +0.084 A 
ATOM     19  C   UNL     1       7.812   5.905 -11.493  0.00  0.00    +0.055 A 
ATOM     20  N   UNL     1       7.038   6.678 -10.700  0.00  0.00    -0.266 N 
ATOM     21  N   UNL     1       6.768   7.867 -11.389  0.00  0.00    -0.175 NA
ATOM     22  C   UNL     1       8.347   4.538 -11.152  0.00  0.00    +0.067 C 
ATOM     23 CL   UNL     1       8.946   6.017 -14.005  0.00  0.00    -0.080 Cl
ENDBRANCH  15  20
ENDBRANCH  13  15
ENDBRANCH   1  13
BRANCH  10  24
ATOM     24  C   UNL     1       2.451   3.937  -0.001  0.00  0.00    +0.178 C 
BRANCH  24  25
ATOM     25  C   UNL     1       1.156   3.165   0.008  0.00  0.00    -0.026 A 
ATOM     26  C   UNL     1       1.175   1.783   0.000  0.00  0.00    +0.005 A 
ATOM     27  C   UNL     1      -0.013   1.076   0.008  0.00  0.00    +0.000 A 
ATOM     28  C   UNL     1      -1.219   1.751   0.017  0.00  0.00    +0.000 A 
ATOM     29  C   UNL     1      -1.238   3.133   0.030  0.00  0.00    +0.000 A 
ATOM     30  C   UNL     1      -0.050   3.840   0.023  0.00  0.00    +0.005 A 
ENDBRANCH  24  25
ENDBRANCH  10  24
TORSDOF 5
