REMARK  Name = ZINC17418789
REMARK  5 active torsions:
REMARK  status: ('A' for Active; 'I' for Inactive)
REMARK    1  A    between atoms: C_5  and  N_7
REMARK    2  A    between atoms: N_17  and  N_18
REMARK    3  A    between atoms: C_19  and  C_20
REMARK    4  A    between atoms: C_23  and  C_25
REMARK    5  A    between atoms: C_27  and  N_32
REMARK                            x       y       z     vdW  Elec       q    Type
REMARK                         _______ _______ _______ _____ _____    ______ ____
ROOT
ATOM      1  N   UNL     1      -5.699   4.017   0.053  0.00  0.00    -0.294 N 
ATOM      2  C   UNL     1      -5.856   2.650   0.159  0.00  0.00    +0.167 A 
ATOM      3  C   UNL     1      -4.683   1.801   0.397  0.00  0.00    +0.181 A 
ATOM      4  N   UNL     1      -4.809   0.493   0.496  0.00  0.00    -0.202 NA
ATOM      5  C   UNL     1      -6.019  -0.063   0.390  0.00  0.00    +0.244 A 
ATOM      6  C   UNL     1      -7.205   0.794   0.149  0.00  0.00    +0.244 A 
ATOM      7  N   UNL     1      -7.056   2.120   0.046  0.00  0.00    -0.203 NA
ATOM      8  N   UNL     1      -8.186  -0.077   0.098  0.00  0.00    -0.027 NA
ATOM      9  O   UNL     1      -7.736  -1.192   0.263  0.00  0.00    -0.238 OA
ATOM     10  N   UNL     1      -6.537  -1.269   0.432  0.00  0.00    -0.027 NA
ATOM     11  N   UNL     1      -3.434   2.378   0.513  0.00  0.00    -0.218 N 
ATOM     12  H   UNL     1      -4.810   4.404   0.045  0.00  0.00    +0.154 HD
ATOM     13  H   UNL     1      -3.335   3.340   0.436  0.00  0.00    +0.176 HD
ENDROOT
BRANCH   1  18
ATOM     14  C   UNL     1      -9.126   5.286   0.461  0.00  0.00    +0.002 A 
ATOM     15  C   UNL     1      -9.049   6.480  -0.232  0.00  0.00    +0.003 A 
ATOM     16  C   UNL     1      -7.861   6.860  -0.831  0.00  0.00    +0.040 A 
ATOM     17  C   UNL     1      -6.747   6.046  -0.739  0.00  0.00    +0.144 A 
ATOM     18  C   UNL     1      -6.823   4.844  -0.042  0.00  0.00    +0.068 A 
ATOM     19  C   UNL     1      -8.019   4.465   0.553  0.00  0.00    +0.026 A 
ATOM     20  F   UNL     1      -5.588   6.417  -1.323  0.00  0.00    -0.204 F 
ENDBRANCH   1  18
BRANCH  11  21
ATOM     21  N   UNL     1      -2.398   1.637   0.722  0.00  0.00    -0.186 NA
ATOM     22  C   UNL     1      -1.195   2.193   0.833  0.00  0.00    +0.176 C 
BRANCH  22  23
ATOM     23  C   UNL     1      -0.082   1.398   1.058  0.00  0.00    +0.148 A 
ATOM     24  C   UNL     1       1.305   1.860   1.197  0.00  0.00    +0.051 A 
ATOM     25  C   UNL     1       2.059   0.748   1.399  0.00  0.00    +0.050 A 
ATOM     26  C   UNL     1       1.190  -0.365   1.389  0.00  0.00    +0.137 A 
ATOM     27  O   UNL     1      -0.071   0.052   1.185  0.00  0.00    -0.454 OA
BRANCH  26  28
ATOM     28  C   UNL     1       1.598  -1.756   1.572  0.00  0.00    +0.038 A 
ATOM     29  C   UNL     1       0.932  -2.574   2.504  0.00  0.00    +0.045 A 
ATOM     30  C   UNL     1       1.319  -3.872   2.669  0.00  0.00    +0.127 A 
ATOM     31  C   UNL     1       2.366  -4.394   1.922  0.00  0.00    +0.034 A 
ATOM     32  C   UNL     1       3.034  -3.604   1.000  0.00  0.00    +0.023 A 
ATOM     33  C   UNL     1       2.657  -2.291   0.813  0.00  0.00    +0.052 A 
ATOM     34 CL   UNL     1       3.487  -1.301  -0.346  0.00  0.00    -0.083 Cl
BRANCH  30  35
ATOM     35  N   UNL     1       0.616  -4.730   3.649  0.00  0.00    +0.056 N 
ATOM     36  O   UNL     1      -0.379  -4.240   4.359  0.00  0.00    -0.126 OA
ATOM     37  O   UNL     1       0.986  -5.984   3.812  0.00  0.00    -0.126 OA
ENDBRANCH  30  35
ENDBRANCH  26  28
ENDBRANCH  22  23
ENDBRANCH  11  21
TORSDOF 5
