REMARK  Name = ZINC13041781
REMARK  10 active torsions:
REMARK  status: ('A' for Active; 'I' for Inactive)
REMARK    1  A    between atoms: C_1  and  C_2
REMARK    2  A    between atoms: C_2  and  C_22
REMARK    3  A    between atoms: N_5  and  C_9
REMARK    4  A    between atoms: C_9  and  C_10
REMARK    5  A    between atoms: N_12  and  C_13
REMARK    6  A    between atoms: N_12  and  C_14
REMARK    7  A    between atoms: C_25  and  C_28
REMARK    8  A    between atoms: C_28  and  C_29
REMARK    9  A    between atoms: C_28  and  C_30
REMARK   10  A    between atoms: C_28  and  C_31
REMARK                            x       y       z     vdW  Elec       q    Type
REMARK                         _______ _______ _______ _____ _____    ______ ____
ROOT
ATOM      1  C   UNL     1      -0.105   6.302   1.469  0.00  0.00    +0.047 C 
ATOM      2  C   UNL     1      -0.076   5.774   0.033  0.00  0.00    +0.135 C 
ATOM      3  C   UNL     1      -1.262   6.296  -0.755  0.00  0.00    +0.251 C 
ATOM      4  O   UNL     1      -2.436   6.104  -0.524  0.00  0.00    -0.272 OA
ATOM      5  N   UNL     1      -0.738   7.017  -1.766  0.00  0.00    -0.215 N 
ATOM      6  C   UNL     1       0.599   7.023  -1.727  0.00  0.00    +0.310 C 
ATOM      7  O   UNL     1       1.296   7.606  -2.534  0.00  0.00    -0.252 OA
ATOM      8  N   UNL     1       1.087   6.312  -0.694  0.00  0.00    -0.281 N 
ATOM      9  H   UNL     1       2.021   6.180  -0.471  0.00  0.00    +0.152 HD
ENDROOT
BRANCH   2  10
ATOM     10  C   UNL     1      -0.056   4.267   0.025  0.00  0.00    -0.015 A 
ATOM     11  C   UNL     1       1.151   3.592   0.010  0.00  0.00    +0.006 A 
ATOM     12  C   UNL     1       1.169   2.210   0.003  0.00  0.00    +0.004 A 
ATOM     13  C   UNL     1      -0.018   1.503   0.010  0.00  0.00    -0.042 A 
ATOM     14  C   UNL     1      -1.225   2.178   0.020  0.00  0.00    +0.004 A 
ATOM     15  C   UNL     1      -1.244   3.560   0.032  0.00  0.00    +0.006 A 
BRANCH  13  16
ATOM     16  C   UNL     1       0.002  -0.004   0.002  0.00  0.00    -0.013 C 
ATOM     17  C   UNL     1       0.742  -0.511   1.242  0.00  0.00    +0.015 C 
ATOM     18  C   UNL     1      -1.433  -0.534   0.013  0.00  0.00    +0.015 C 
ATOM     19  C   UNL     1       0.718  -0.497  -1.257  0.00  0.00    +0.015 C 
ENDBRANCH  13  16
ENDBRANCH   2  10
BRANCH   5  20
ATOM     20  C   UNL     1      -1.535   7.707  -2.783  0.00  0.00    +0.213 C 
BRANCH  20  21
ATOM     21  C   UNL     1      -1.778   6.780  -3.946  0.00  0.00    +0.234 C 
ATOM     22  O   UNL     1      -1.330   5.653  -3.927  0.00  0.00    -0.274 OA
ATOM     23  N   UNL     1      -2.494   7.203  -5.006  0.00  0.00    -0.299 N 
ATOM     24  C   UNL     1      -3.035   8.565  -5.029  0.00  0.00    +0.132 C 
BRANCH  23  25
ATOM     25  C   UNL     1      -2.731   6.302  -6.137  0.00  0.00    +0.098 C 
ATOM     26  C   UNL     1      -2.168   6.926  -7.425  0.00  0.00    +0.046 C 
ATOM     27  C   UNL     1      -2.687   6.148  -8.658  0.00  0.00    +0.168 C 
ATOM     28  S   UNL     1      -4.301   5.489  -8.070  0.00  0.00    -0.029 S 
ATOM     29  O   UNL     1      -4.247   4.069  -8.070  0.00  0.00    -0.174 OA
ATOM     30  O   UNL     1      -5.350   6.150  -8.763  0.00  0.00    -0.174 OA
ATOM     31  C   UNL     1      -4.260   6.090  -6.329  0.00  0.00    +0.188 C 
ENDBRANCH  23  25
ENDBRANCH  20  21
ENDBRANCH   5  20
TORSDOF 5
