REMARK  Name = ZINC27230104
REMARK  5 active torsions:
REMARK  status: ('A' for Active; 'I' for Inactive)
REMARK    1  A    between atoms: C_1  and  C_2
REMARK    2  A    between atoms: C_2  and  C_4
REMARK    3  A    between atoms: C_2  and  N_10
REMARK    4  A    between atoms: C_14  and  C_15
REMARK    5  A    between atoms: C_16  and  C_17
REMARK                            x       y       z     vdW  Elec       q    Type
REMARK                         _______ _______ _______ _____ _____    ______ ____
ROOT
ATOM      1  N   UNL     1       2.199   4.933  -1.045  0.00  0.00    -0.248 N 
ATOM      2  C   UNL     1       2.855   4.857  -2.190  0.00  0.00    +0.259 C 
ATOM      3  O   UNL     1       3.667   3.971  -2.389  0.00  0.00    -0.269 OA
ATOM      4  C   UNL     1       2.584   5.843  -3.185  0.00  0.00    +0.077 C 
ATOM      5  C   UNL     1       3.124   5.988  -4.445  0.00  0.00    +0.020 C 
ATOM      6  S   UNL     1       1.355   6.839  -2.353  0.00  0.00    -0.061 S 
ATOM      7  C   UNL     1       1.294   5.913  -0.826  0.00  0.00    +0.121 C 
ATOM      8  S   UNL     1       0.335   6.196   0.563  0.00  0.00    -0.027 S 
ENDROOT
BRANCH   1  10
ATOM      9  C   UNL     1       2.254   2.533  -0.577  0.00  0.00    +0.033 C 
ATOM     10  C   UNL     1       2.451   3.937  -0.001  0.00  0.00    +0.110 C 
BRANCH  10  11
ATOM     11  C   UNL     1       3.865   4.080   0.499  0.00  0.00    -0.027 A 
ATOM     12  C   UNL     1       4.597   2.957   0.836  0.00  0.00    +0.005 A 
ATOM     13  C   UNL     1       5.894   3.089   1.296  0.00  0.00    +0.000 A 
ATOM     14  C   UNL     1       6.458   4.345   1.423  0.00  0.00    +0.000 A 
ATOM     15  C   UNL     1       5.728   5.468   1.081  0.00  0.00    +0.000 A 
ATOM     16  C   UNL     1       4.431   5.336   0.622  0.00  0.00    +0.005 A 
ENDBRANCH  10  11
ENDBRANCH   1  10
BRANCH   5  17
ATOM     17  C   UNL     1       4.089   5.079  -4.904  0.00  0.00    +0.005 C 
ATOM     18  C   UNL     1       4.622   5.222  -6.148  0.00  0.00    +0.046 C 
BRANCH  18  19
ATOM     19  C   UNL     1       5.595   4.306  -6.611  0.00  0.00    +0.128 A 
ATOM     20  C   UNL     1       6.216   4.331  -7.844  0.00  0.00    +0.049 A 
ATOM     21  C   UNL     1       7.100   3.241  -7.868  0.00  0.00    +0.042 A 
ATOM     22  C   UNL     1       6.988   2.608  -6.680  0.00  0.00    +0.195 A 
ATOM     23  O   UNL     1       6.087   3.253  -5.924  0.00  0.00    -0.464 OA
ENDBRANCH  18  19
ENDBRANCH   5  17
TORSDOF 4
