REMARK  Name = ZINC45190679
REMARK  10 active torsions:
REMARK  status: ('A' for Active; 'I' for Inactive)
REMARK    1  A    between atoms: C_1  and  C_2
REMARK    2  A    between atoms: N_5  and  C_11
REMARK    3  A    between atoms: C_7  and  C_10
REMARK    4  A    between atoms: C_18  and  C_30
REMARK    5  A    between atoms: N_19  and  C_20
REMARK    6  A    between atoms: C_20  and  C_21
REMARK    7  A    between atoms: C_21  and  N_22
REMARK    8  A    between atoms: N_22  and  C_23
REMARK    9  A    between atoms: C_23  and  C_24
REMARK   10  A    between atoms: C_32  and  C_36
REMARK                            x       y       z     vdW  Elec       q    Type
REMARK                         _______ _______ _______ _____ _____    ______ ____
ROOT
ATOM      1  C   UNL     1      -1.968  -3.344  -0.473  0.00  0.00    +0.058 A 
ATOM      2  C   UNL     1      -1.396  -3.949  -1.577  0.00  0.00    +0.025 A 
ATOM      3  C   UNL     1      -2.182  -4.645  -2.483  0.00  0.00    +0.004 A 
ATOM      4  C   UNL     1      -3.545  -4.744  -2.297  0.00  0.00    +0.028 A 
ATOM      5  C   UNL     1      -4.141  -4.144  -1.195  0.00  0.00    +0.071 A 
ATOM      6  C   UNL     1      -3.354  -3.442  -0.268  0.00  0.00    +0.111 A 
ATOM      7  N   UNL     1      -4.187  -2.975   0.694  0.00  0.00    -0.226 NA
ATOM      8  C   UNL     1      -5.416  -3.342   0.427  0.00  0.00    +0.143 A 
ATOM      9  N   UNL     1      -5.441  -4.062  -0.738  0.00  0.00    -0.325 N 
ENDROOT
BRANCH   1  13
ATOM     10  C   UNL     1       0.886   0.528   0.385  0.00  0.00    +0.039 C 
ATOM     11  C   UNL     1       0.601  -0.975   0.363  0.00  0.00    +0.133 C 
ATOM     12  C   UNL     1      -0.911  -1.208   0.267  0.00  0.00    +0.136 C 
ATOM     13  N   UNL     1      -1.171  -2.646   0.437  0.00  0.00    -0.323 N 
ATOM     14  C   UNL     1      -0.567  -3.326   1.593  0.00  0.00    +0.136 C 
ATOM     15  C   UNL     1       0.928  -2.990   1.625  0.00  0.00    +0.133 C 
ATOM     16  O   UNL     1       1.095  -1.572   1.565  0.00  0.00    -0.371 OA
ATOM     17  C   UNL     1       1.545  -3.524   2.920  0.00  0.00    +0.039 C 
ENDBRANCH   1  13
BRANCH   8  18
ATOM     18  C   UNL     1      -6.599  -3.018   1.253  0.00  0.00    +0.037 A 
ATOM     19  C   UNL     1      -7.767  -3.777   1.148  0.00  0.00    +0.033 A 
ATOM     20  C   UNL     1      -8.856  -3.429   1.952  0.00  0.00    +0.070 A 
ATOM     21  C   UNL     1      -8.735  -2.342   2.823  0.00  0.00    +0.129 A 
ATOM     22  N   UNL     1      -7.615  -1.652   2.890  0.00  0.00    -0.261 NA
ATOM     23  C   UNL     1      -6.564  -1.952   2.154  0.00  0.00    +0.122 A 
BRANCH  20  24
ATOM     24  C   UNL     1     -10.078  -4.173   1.885  0.00  0.00    +0.101 C 
ATOM     25  N   UNL     1     -11.046  -4.763   1.831  0.00  0.00    -0.191 NA
ENDBRANCH  20  24
ENDBRANCH   8  18
BRANCH   9  26
ATOM     26  C   UNL     1      -6.625  -4.648  -1.372  0.00  0.00    +0.105 C 
BRANCH  26  27
ATOM     27  C   UNL     1      -6.774  -6.104  -0.926  0.00  0.00    -0.060 C 
BRANCH  27  28
ATOM     28  N   UNL     1      -7.960  -6.692  -1.562  0.00  0.00    +0.383 N 
ATOM     29  H   UNL     1      -8.780  -6.171  -1.290  0.00  0.00    -0.085 HD
ATOM     30  H   UNL     1      -7.857  -6.656  -2.565  0.00  0.00    -0.085 HD
BRANCH  28  31
ATOM     31  C   UNL     1      -8.103  -8.090  -1.134  0.00  0.00    -0.047 C 
BRANCH  31  32
ATOM     32  C   UNL     1      -9.320  -8.693  -1.787  0.00  0.00    -0.064 A 
ATOM     33  C   UNL     1     -10.551  -8.613  -1.162  0.00  0.00    +0.002 A 
ATOM     34  C   UNL     1     -11.667  -9.166  -1.760  0.00  0.00    +0.000 A 
ATOM     35  C   UNL     1     -11.554  -9.799  -2.983  0.00  0.00    +0.000 A 
ATOM     36  C   UNL     1     -10.323  -9.879  -3.609  0.00  0.00    +0.000 A 
ATOM     37  C   UNL     1      -9.208  -9.322  -3.013  0.00  0.00    +0.002 A 
ENDBRANCH  31  32
ENDBRANCH  28  31
ENDBRANCH  27  28
ENDBRANCH  26  27
ENDBRANCH   9  26
TORSDOF 8
