REMARK  Name = ZINC13500204
REMARK  10 active torsions:
REMARK  status: ('A' for Active; 'I' for Inactive)
REMARK    1  A    between atoms: C_1  and  C_2
REMARK    2  A    between atoms: C_2  and  C_3
REMARK    3  A    between atoms: C_3  and  C_4
REMARK    4  A    between atoms: C_4  and  C_6
REMARK    5  A    between atoms: C_4  and  N_72
REMARK    6  A    between atoms: N_10  and  C_11
REMARK    7  A    between atoms: C_11  and  C_12
REMARK    8  A    between atoms: C_18  and  C_19
REMARK    9  A    between atoms: C_18  and  N_72
REMARK   10  A    between atoms: C_34  and  N_72
REMARK                            x       y       z     vdW  Elec       q    Type
REMARK                         _______ _______ _______ _____ _____    ______ ____
ROOT
ATOM      1  N   UNL     1       3.884   1.358  -2.695  0.00  0.00    +0.391 N 
ATOM      2  H   UNL     1       4.589   1.417  -3.439  0.00  0.00    -0.080 HD
ENDROOT
BRANCH   1   3
ATOM      3  C   UNL     1       2.538   1.393  -3.304  0.00  0.00    -0.067 C 
ATOM      4  C   UNL     1       2.626   0.803  -4.713  0.00  0.00    -0.015 C 
ATOM      5  C   UNL     1       1.245   0.842  -5.370  0.00  0.00    -0.002 C 
ATOM      6  C   UNL     1       0.760   2.290  -5.453  0.00  0.00    -0.000 C 
ATOM      7  C   UNL     1       0.672   2.881  -4.044  0.00  0.00    -0.002 C 
ATOM      8  C   UNL     1       2.053   2.842  -3.388  0.00  0.00    -0.015 C 
ENDBRANCH   1   3
BRANCH   1   9
ATOM      9  C   UNL     1       4.054   2.506  -1.779  0.00  0.00    +0.003 C 
BRANCH   9  10
ATOM     10  C   UNL     1       5.525   2.815  -1.664  0.00  0.00    +0.138 A 
ATOM     11  N   UNL     1       6.518   1.983  -1.866  0.00  0.00    -0.115 NA
ATOM     12  N   UNL     1       7.619   2.622  -1.666  0.00  0.00    -0.023 NA
ATOM     13  N   UNL     1       7.354   3.841  -1.347  0.00  0.00    -0.044 NA
ATOM     14  N   UNL     1       6.074   4.000  -1.338  0.00  0.00    -0.226 N 
BRANCH  14  15
ATOM     15  C   UNL     1       5.352   5.236  -1.026  0.00  0.00    +0.182 C 
BRANCH  15  16
ATOM     16  C   UNL     1       5.181   6.049  -2.284  0.00  0.00    -0.026 A 
ATOM     17  C   UNL     1       4.002   5.970  -3.002  0.00  0.00    +0.005 A 
ATOM     18  C   UNL     1       3.845   6.715  -4.156  0.00  0.00    +0.000 A 
ATOM     19  C   UNL     1       4.868   7.535  -4.594  0.00  0.00    +0.000 A 
ATOM     20  C   UNL     1       6.044   7.618  -3.873  0.00  0.00    +0.000 A 
ATOM     21  C   UNL     1       6.201   6.873  -2.719  0.00  0.00    +0.005 A 
ENDBRANCH  15  16
ENDBRANCH  14  15
ENDBRANCH   9  10
BRANCH   9  22
ATOM     22  C   UNL     1       3.494   2.173  -0.395  0.00  0.00    -0.008 C 
BRANCH  22  24
ATOM     23  C   UNL     1       1.407   1.731   0.906  0.00  0.00    +0.004 C 
ATOM     24  C   UNL     1       1.978   1.988  -0.490  0.00  0.00    -0.005 C 
ENDBRANCH  22  24
ENDBRANCH   9  22
ENDBRANCH   1   9
BRANCH   1  25
ATOM     25  C   UNL     1       4.071   0.091  -1.956  0.00  0.00    -0.036 C 
BRANCH  25  26
ATOM     26  C   UNL     1       4.127  -1.044  -2.946  0.00  0.00    +0.001 A 
ATOM     27  C   UNL     1       5.323  -1.451  -3.442  0.00  0.00    +0.017 A 
ATOM     28  C   UNL     1       5.344  -2.559  -4.396  0.00  0.00    +0.002 A 
ATOM     29  C   UNL     1       6.550  -3.023  -4.937  0.00  0.00    +0.059 A 
ATOM     30  C   UNL     1       6.538  -4.066  -5.836  0.00  0.00    +0.167 A 
ATOM     31  C   UNL     1       5.327  -4.663  -6.209  0.00  0.00    +0.168 A 
ATOM     32  C   UNL     1       4.132  -4.210  -5.681  0.00  0.00    +0.075 A 
ATOM     33  C   UNL     1       4.127  -3.158  -4.774  0.00  0.00    +0.053 A 
ATOM     34  N   UNL     1       2.943  -2.693  -4.237  0.00  0.00    -0.322 N 
ATOM     35  H   UNL     1       2.105  -3.106  -4.498  0.00  0.00    +0.169 HD
ATOM     36  C   UNL     1       2.936  -1.676  -3.357  0.00  0.00    +0.251 A 
ATOM     37  O   UNL     1       1.871  -1.291  -2.903  0.00  0.00    -0.268 OA
ATOM     38  O   UNL     1       5.593  -5.662  -7.100  0.00  0.00    -0.453 OA
ATOM     39  C   UNL     1       6.997  -5.943  -6.956  0.00  0.00    +0.466 C 
ATOM     40  O   UNL     1       7.553  -4.697  -6.497  0.00  0.00    -0.453 OA
ENDBRANCH  25  26
ENDBRANCH   1  25
TORSDOF 9
