REMARK  Name = ZINC57289788
REMARK  8 active torsions:
REMARK  status: ('A' for Active; 'I' for Inactive)
REMARK    1  A    between atoms: C_1  and  C_2
REMARK    2  A    between atoms: C_5  and  C_8
REMARK    3  A    between atoms: C_8  and  C_10
REMARK    4  A    between atoms: C_8  and  N_15
REMARK    5  A    between atoms: N_15  and  C_16
REMARK    6  A    between atoms: C_16  and  C_17
REMARK    7  A    between atoms: N_19  and  C_20
REMARK    8  A    between atoms: C_25  and  N_26
REMARK                            x       y       z     vdW  Elec       q    Type
REMARK                         _______ _______ _______ _____ _____    ______ ____
ROOT
ATOM      1  C   UNL     1      -1.291  -6.139   0.732  0.00  0.00    +0.178 C 
ENDROOT
BRANCH   1   2
ATOM      2  C   UNL     1      -2.196  -6.620   1.837  0.00  0.00    +0.231 C 
ATOM      3  O   UNL     1      -2.420  -5.905   2.791  0.00  0.00    -0.274 OA
ATOM      4  N   UNL     1      -2.755  -7.844   1.766  0.00  0.00    -0.283 N 
ATOM      5  H   UNL     1      -2.640  -8.383   0.968  0.00  0.00    +0.155 HD
BRANCH   4   6
ATOM      6  C   UNL     1      -3.501  -8.336   2.842  0.00  0.00    +0.061 A 
ATOM      7  C   UNL     1      -3.264  -7.866   4.126  0.00  0.00    +0.045 A 
ATOM      8  C   UNL     1      -4.003  -8.354   5.188  0.00  0.00    +0.043 A 
ATOM      9  C   UNL     1      -4.979  -9.312   4.974  0.00  0.00    +0.022 A 
ATOM     10  C   UNL     1      -5.222  -9.785   3.699  0.00  0.00    +0.031 A 
ATOM     11  C   UNL     1      -4.489  -9.296   2.627  0.00  0.00    +0.088 A 
ATOM     12 CL   UNL     1      -3.704  -7.765   6.793  0.00  0.00    -0.083 Cl
BRANCH  11  13
ATOM     13  N   UNL     1      -4.738  -9.771   1.331  0.00  0.00    -0.218 N 
ATOM     14  C   UNL     1      -5.716 -10.617   0.955  0.00  0.00    +0.225 A 
ATOM     15  N   UNL     1      -5.609 -10.812  -0.335  0.00  0.00    -0.222 NA
ATOM     16  C   UNL     1      -4.581 -10.114  -0.815  0.00  0.00    +0.245 A 
ATOM     17  N   UNL     1      -4.019  -9.455   0.166  0.00  0.00    -0.153 NA
ENDBRANCH  11  13
ENDBRANCH   4   6
ENDBRANCH   1   2
BRANCH   1  18
ATOM     18  N   UNL     1      -0.813  -4.785   1.044  0.00  0.00    -0.297 NA
ATOM     19  H   UNL     1      -0.354  -4.762   1.942  0.00  0.00    +0.123 HD
BRANCH  18  20
ATOM     20  C   UNL     1       0.073  -4.283  -0.013  0.00  0.00    +0.122 C 
BRANCH  20  25
ATOM     21  C   UNL     1      -0.007   1.496  -0.008  0.00  0.00    +0.044 C 
ATOM     22  C   UNL     1       0.014  -0.011  -0.010  0.00  0.00    -0.050 A 
ATOM     23  C   UNL     1       0.028  -0.701  -1.208  0.00  0.00    +0.004 A 
ATOM     24  C   UNL     1       0.048  -2.083  -1.209  0.00  0.00    +0.006 A 
ATOM     25  C   UNL     1       0.053  -2.776  -0.012  0.00  0.00    -0.026 A 
ATOM     26  C   UNL     1       0.040  -2.086   1.186  0.00  0.00    +0.006 A 
ATOM     27  C   UNL     1       0.025  -0.704   1.187  0.00  0.00    +0.004 A 
ENDBRANCH  20  25
BRANCH  20  28
ATOM     28  C   UNL     1       1.479  -4.766   0.237  0.00  0.00    +0.011 A 
ATOM     29  C   UNL     1       2.402  -5.205  -0.654  0.00  0.00    +0.013 A 
ATOM     30  C   UNL     1       3.642  -5.604  -0.192  0.00  0.00    +0.008 A 
ATOM     31  C   UNL     1       3.899  -5.544   1.138  0.00  0.00    +0.045 A 
ATOM     32  S   UNL     1       2.362  -4.903   1.782  0.00  0.00    -0.100 S 
ENDBRANCH  20  28
ENDBRANCH  18  20
ENDBRANCH   1  18
TORSDOF 7
