REMARK  Name = ZINC64202231
REMARK  7 active torsions:
REMARK  status: ('A' for Active; 'I' for Inactive)
REMARK    1  A    between atoms: C_1  and  C_2
REMARK    2  A    between atoms: C_4  and  C_9
REMARK    3  A    between atoms: C_5  and  C_8
REMARK    4  A    between atoms: C_9  and  O_10
REMARK    5  A    between atoms: O_10  and  C_11
REMARK    6  A    between atoms: C_16  and  C_17
REMARK    7  A    between atoms: C_22  and  C_25
REMARK                            x       y       z     vdW  Elec       q    Type
REMARK                         _______ _______ _______ _____ _____    ______ ____
ROOT
ATOM      1  C   UNL     1      -5.465  -2.418   0.163  0.00  0.00    +0.250 C 
ATOM      2  O   UNL     1      -4.576  -2.312   0.985  0.00  0.00    -0.270 OA
ATOM      3  N   UNL     1      -6.482  -3.278   0.377  0.00  0.00    -0.293 N 
ATOM      4  C   UNL     1      -6.596  -4.029   1.639  0.00  0.00    +0.113 C 
ATOM      5  C   UNL     1      -7.893  -3.601   2.329  0.00  0.00    +0.054 C 
ATOM      6  C   UNL     1      -9.025  -3.575   1.345  0.00  0.00    -0.043 C 
ATOM      7  C   UNL     1      -8.867  -3.523   0.028  0.00  0.00    -0.004 C 
ATOM      8  C   UNL     1      -7.522  -3.497  -0.637  0.00  0.00    +0.135 C 
ENDROOT
BRANCH   6   9
ATOM      9  C   UNL     1     -10.341  -3.608   1.851  0.00  0.00    -0.016 C 
ATOM     10  C   UNL     1     -10.729  -3.544   3.183  0.00  0.00    +0.003 A 
ATOM     11  C   UNL     1      -9.997  -3.433   4.388  0.00  0.00    +0.010 A 
ATOM     12  C   UNL     1     -10.655  -3.391   5.573  0.00  0.00    +0.001 A 
ATOM     13  C   UNL     1     -12.050  -3.455   5.640  0.00  0.00    +0.002 A 
ATOM     14  C   UNL     1     -12.816  -3.562   4.528  0.00  0.00    +0.026 A 
ATOM     15  C   UNL     1     -12.200  -3.612   3.249  0.00  0.00    +0.043 A 
ATOM     16  N   UNL     1     -12.710  -3.712   2.040  0.00  0.00    -0.380 N 
ATOM     17  C   UNL     1     -11.623  -3.714   1.056  0.00  0.00    +0.149 C 
ATOM     18  H   UNL     1     -13.656  -3.772   1.833  0.00  0.00    +0.160 HD
ENDBRANCH   6   9
BRANCH   1  24
ATOM     19  C   UNL     1      -5.319  -0.212  -0.991  0.00  0.00    +0.133 A 
ATOM     20  C   UNL     1      -5.283   0.540  -2.156  0.00  0.00    +0.046 A 
ATOM     21  C   UNL     1      -5.365  -0.083  -3.385  0.00  0.00    +0.004 A 
ATOM     22  C   UNL     1      -5.484  -1.461  -3.466  0.00  0.00    +0.001 A 
ATOM     23  C   UNL     1      -5.521  -2.224  -2.319  0.00  0.00    +0.017 A 
ATOM     24  C   UNL     1      -5.433  -1.607  -1.069  0.00  0.00    +0.078 A 
BRANCH  19  25
ATOM     25  O   UNL     1      -5.238   0.398   0.217  0.00  0.00    -0.487 OA
BRANCH  25  26
ATOM     26  C   UNL     1      -5.011   1.809   0.217  0.00  0.00    +0.264 C 
BRANCH  26  29
ATOM     27  C   UNL     1      -2.402   1.970   2.117  0.00  0.00    +0.045 C 
ATOM     28  C   UNL     1      -3.827   1.760   2.633  0.00  0.00    +0.176 C 
ATOM     29  C   UNL     1      -4.830   2.289   1.634  0.00  0.00    +0.019 C 
ATOM     30  C   UNL     1      -5.517   3.244   2.224  0.00  0.00    +0.041 C 
ATOM     31  N   UNL     1      -5.094   3.431   3.528  0.00  0.00    -0.269 N 
ATOM     32  O   UNL     1      -4.043   2.526   3.827  0.00  0.00    -0.267 OA
ATOM     33  C   UNL     1      -6.620   4.032   1.565  0.00  0.00    +0.065 C 
ATOM     34  H   UNL     1      -5.462   4.082   4.145  0.00  0.00    +0.194 HD
ENDBRANCH  26  29
ENDBRANCH  25  26
ENDBRANCH  19  25
ENDBRANCH   1  24
TORSDOF 5
