REMARK  Name = ZINC13499075
REMARK  13 active torsions:
REMARK  status: ('A' for Active; 'I' for Inactive)
REMARK    1  A    between atoms: C_1  and  C_2
REMARK    2  A    between atoms: C_4  and  C_33
REMARK    3  A    between atoms: C_7  and  C_14
REMARK    4  A    between atoms: C_14  and  N_66
REMARK    5  A    between atoms: C_15  and  C_16
REMARK    6  A    between atoms: C_15  and  N_66
REMARK    7  A    between atoms: C_16  and  O_17
REMARK    8  A    between atoms: C_18  and  C_20
REMARK    9  A    between atoms: C_18  and  C_30
REMARK   10  A    between atoms: C_18  and  N_66
REMARK   11  A    between atoms: N_24  and  C_25
REMARK   12  A    between atoms: C_30  and  C_31
REMARK   13  A    between atoms: C_30  and  C_32
REMARK                            x       y       z     vdW  Elec       q    Type
REMARK                         _______ _______ _______ _____ _____    ______ ____
ROOT
ATOM      1  N   UNL     1      -0.680   2.918   1.253  0.00  0.00    +0.391 N 
ATOM      2  H   UNL     1      -0.938   3.181   0.295  0.00  0.00    -0.080 HD
ENDROOT
BRANCH   1   3
ATOM      3  C   UNL     1       0.626   3.528   1.582  0.00  0.00    -0.036 C 
BRANCH   3  10
ATOM      4  C   UNL     1       3.793   0.128   8.065  0.00  0.00    +0.044 C 
ATOM      5  C   UNL     1       3.312   0.608   6.720  0.00  0.00    -0.048 A 
ATOM      6  C   UNL     1       3.735  -0.040   5.567  0.00  0.00    +0.007 A 
ATOM      7  C   UNL     1       3.311   0.379   4.338  0.00  0.00    -0.041 A 
ATOM      8  C   UNL     1       2.444   1.472   4.240  0.00  0.00    +0.002 A 
ATOM      9  C   UNL     1       1.971   1.948   2.939  0.00  0.00    +0.017 A 
ATOM     10  C   UNL     1       1.131   3.013   2.905  0.00  0.00    +0.001 A 
ATOM     11  C   UNL     1       0.734   3.643   4.103  0.00  0.00    +0.251 A 
ATOM     12  O   UNL     1      -0.017   4.602   4.050  0.00  0.00    -0.268 OA
ATOM     13  N   UNL     1       1.159   3.210   5.303  0.00  0.00    -0.322 N 
ATOM     14  H   UNL     1       0.863   3.664   6.107  0.00  0.00    +0.169 HD
ATOM     15  C   UNL     1       2.013   2.132   5.406  0.00  0.00    +0.050 A 
ATOM     16  C   UNL     1       2.458   1.687   6.647  0.00  0.00    +0.029 A 
ATOM     17  C   UNL     1       3.776  -0.333   3.094  0.00  0.00    +0.044 C 
ENDBRANCH   3  10
ENDBRANCH   1   3
BRANCH   1  18
ATOM     18  C   UNL     1      -0.585   1.446   1.339  0.00  0.00    -0.049 C 
BRANCH  18  19
ATOM     19  C   UNL     1       0.307   0.942   0.203  0.00  0.00    +0.137 C 
BRANCH  19  20
ATOM     20  O   UNL     1      -0.311   1.231  -1.053  0.00  0.00    -0.397 OA
ATOM     21  H   UNL     1       0.201   0.939  -1.819  0.00  0.00    +0.209 HD
ENDBRANCH  19  20
ENDBRANCH  18  19
ENDBRANCH   1  18
BRANCH   1  22
ATOM     22  C   UNL     1      -1.717   3.413   2.183  0.00  0.00    +0.006 C 
BRANCH  22  23
ATOM     23  C   UNL     1      -3.009   2.687   1.910  0.00  0.00    +0.139 A 
ATOM     24  N   UNL     1      -3.532   2.435   0.735  0.00  0.00    -0.115 NA
ATOM     25  N   UNL     1      -4.635   1.795   0.919  0.00  0.00    -0.023 NA
ATOM     26  N   UNL     1      -4.833   1.639   2.182  0.00  0.00    -0.044 NA
ATOM     27  N   UNL     1      -3.852   2.175   2.826  0.00  0.00    -0.228 N 
BRANCH  27  28
ATOM     28  C   UNL     1      -3.687   2.219   4.281  0.00  0.00    +0.111 C 
ATOM     29  C   UNL     1      -3.684   0.788   4.856  0.00  0.00    +0.027 C 
ATOM     30  C   UNL     1      -4.442   0.918   6.202  0.00  0.00    +0.002 C 
ATOM     31  C   UNL     1      -5.559   1.937   5.868  0.00  0.00    +0.002 C 
ATOM     32  C   UNL     1      -4.879   2.950   4.924  0.00  0.00    +0.027 C 
ENDBRANCH  27  28
ENDBRANCH  22  23
BRANCH  22  33
ATOM     33  C   UNL     1      -1.916   4.912   1.949  0.00  0.00    -0.024 C 
ATOM     34  C   UNL     1      -2.437   5.142   0.529  0.00  0.00    +0.006 C 
ATOM     35  C   UNL     1      -2.929   5.456   2.958  0.00  0.00    +0.006 C 
ENDBRANCH  22  33
ENDBRANCH   1  22
TORSDOF 9
