REMARK  Name = ZINC40425994
REMARK  13 active torsions:
REMARK  status: ('A' for Active; 'I' for Inactive)
REMARK    1  A    between atoms: C_1  and  O_2
REMARK    2  A    between atoms: O_2  and  C_3
REMARK    3  A    between atoms: C_3  and  C_4
REMARK    4  A    between atoms: C_4  and  N_5
REMARK    5  A    between atoms: N_5  and  C_6
REMARK    6  A    between atoms: C_6  and  C_7
REMARK    7  A    between atoms: N_10  and  C_22
REMARK    8  A    between atoms: C_12  and  C_14
REMARK    9  A    between atoms: C_19  and  O_20
REMARK   10  A    between atoms: O_20  and  C_21
REMARK   11  A    between atoms: C_22  and  C_23
REMARK   12  A    between atoms: C_28  and  O_29
REMARK   13  A    between atoms: C_30  and  C_32
REMARK                            x       y       z     vdW  Elec       q    Type
REMARK                         _______ _______ _______ _____ _____    ______ ____
ROOT
ATOM      1  C   UNL     1      -0.694  -5.498   2.047  0.00  0.00    -0.005 C 
ATOM      2  C   UNL     1      -1.406  -6.110   0.821  0.00  0.00    -0.073 C 
ATOM      3  N   UNL     1      -1.911  -7.423   1.299  0.00  0.00    +0.383 N 
ATOM      4  C   UNL     1      -2.388  -7.150   2.679  0.00  0.00    -0.070 C 
ATOM      5  C   UNL     1      -1.338  -6.182   3.270  0.00  0.00    +0.009 C 
ATOM      6  H   UNL     1      -1.167  -8.104   1.311  0.00  0.00    -0.081 HD
ENDROOT
BRANCH   5   7
ATOM      7  C   UNL     1      -2.006  -5.158   4.151  0.00  0.00    -0.004 A 
ATOM      8  C   UNL     1      -3.113  -4.469   3.694  0.00  0.00    +0.007 A 
ATOM      9  C   UNL     1      -3.726  -3.529   4.501  0.00  0.00    +0.001 A 
ATOM     10  C   UNL     1      -3.233  -3.276   5.768  0.00  0.00    +0.004 A 
ATOM     11  C   UNL     1      -2.127  -3.961   6.230  0.00  0.00    +0.046 A 
ATOM     12  C   UNL     1      -1.513  -4.909   5.423  0.00  0.00    +0.123 A 
BRANCH  12  13
ATOM     13  O   UNL     1      -0.427  -5.589   5.878  0.00  0.00    -0.495 OA
ATOM     14  C   UNL     1       0.025  -5.281   7.198  0.00  0.00    +0.277 C 
ENDBRANCH  12  13
ENDBRANCH   5   7
BRANCH   1  15
ATOM     15  C   UNL     1      -0.928  -3.987   2.098  0.00  0.00    +0.110 C 
BRANCH  15  16
ATOM     16  N   UNL     1      -0.176  -3.340   1.020  0.00  0.00    -0.299 N 
ATOM     17  C   UNL     1       1.076  -2.895   1.245  0.00  0.00    +0.219 C 
ATOM     18  O   UNL     1       1.667  -2.283   0.380  0.00  0.00    -0.275 OA
BRANCH  17  19
ATOM     19  C   UNL     1       1.743  -3.159   2.571  0.00  0.00    +0.075 C 
ATOM     20  C   UNL     1       1.407  -2.028   3.565  0.00  0.00    +0.013 C 
ATOM     21  C   UNL     1       2.713  -1.833   4.374  0.00  0.00    +0.001 C 
ATOM     22  C   UNL     1       3.812  -2.023   3.299  0.00  0.00    +0.001 C 
ATOM     23  C   UNL     1       3.272  -3.155   2.402  0.00  0.00    +0.013 C 
ENDBRANCH  17  19
BRANCH  16  24
ATOM     24  C   UNL     1      -0.785  -3.175  -0.302  0.00  0.00    +0.135 C 
BRANCH  24  25
ATOM     25  C   UNL     1      -1.633  -1.902  -0.318  0.00  0.00    +0.178 C 
BRANCH  25  27
ATOM     26  C   UNL     1      -1.484   0.484  -0.147  0.00  0.00    +0.194 C 
ATOM     27  O   UNL     1      -0.787  -0.763  -0.147  0.00  0.00    -0.381 OA
ENDBRANCH  25  27
ENDBRANCH  24  25
ENDBRANCH  16  24
ENDBRANCH  15  16
ENDBRANCH   1  15
BRANCH   3  28
ATOM     28  C   UNL     1      -3.020  -7.885   0.454  0.00  0.00    -0.039 C 
BRANCH  28  29
ATOM     29  C   UNL     1      -3.434  -9.270   0.880  0.00  0.00    -0.022 A 
ATOM     30  C   UNL     1      -2.994 -10.372   0.173  0.00  0.00    +0.005 A 
ATOM     31  C   UNL     1      -3.373 -11.642   0.564  0.00  0.00    +0.000 A 
ATOM     32  C   UNL     1      -4.194 -11.814   1.663  0.00  0.00    +0.004 A 
ATOM     33  C   UNL     1      -4.637 -10.715   2.374  0.00  0.00    +0.045 A 
ATOM     34  C   UNL     1      -4.253  -9.439   1.987  0.00  0.00    +0.118 A 
BRANCH  34  35
ATOM     35  O   UNL     1      -4.682  -8.357   2.688  0.00  0.00    -0.507 OA
ATOM     36  H   UNL     1      -5.520  -7.991   2.372  0.00  0.00    +0.292 HD
ENDBRANCH  34  35
ENDBRANCH  28  29
ENDBRANCH   3  28
TORSDOF 11
