REMARK  Name = ZINC01155587
REMARK  5 active torsions:
REMARK  status: ('A' for Active; 'I' for Inactive)
REMARK    1  A    between atoms: C_1  and  O_2
REMARK    2  A    between atoms: O_2  and  C_3
REMARK    3  A    between atoms: C_5  and  C_11
REMARK    4  A    between atoms: C_8  and  O_9
REMARK    5  A    between atoms: C_16  and  C_21
REMARK                            x       y       z     vdW  Elec       q    Type
REMARK                         _______ _______ _______ _____ _____    ______ ____
ROOT
ATOM      1  C   UNL     1       3.676   2.186  -0.021  0.00  0.00    +0.136 C 
ATOM      2  C   UNL     1       4.165   2.316   1.402  0.00  0.00    +0.036 C 
ATOM      3  C   UNL     1       5.232   1.693   1.929  0.00  0.00    +0.017 C 
ATOM      4  C   UNL     1       5.598   1.895   3.390  0.00  0.00    +0.060 C 
ATOM      5  C   UNL     1       5.223   3.310   3.830  0.00  0.00    +0.039 C 
ATOM      6  C   UNL     1       3.712   3.475   3.631  0.00  0.00    +0.088 C 
ATOM      7  C   UNL     1       3.385   3.190   2.196  0.00  0.00    +0.163 C 
ATOM      8  O   UNL     1       2.416   3.728   1.697  0.00  0.00    -0.292 OA
ATOM      9  N   UNL     1       6.055   0.855   1.250  0.00  0.00    -0.316 N 
ATOM     10  C   UNL     1       5.628  -0.175   0.419  0.00  0.00    +0.052 A 
ATOM     11  C   UNL     1       5.875  -1.506   0.705  0.00  0.00    +0.025 A 
ATOM     12  C   UNL     1       5.461  -2.480  -0.188  0.00  0.00    +0.002 A 
ATOM     13  C   UNL     1       4.809  -2.125  -1.354  0.00  0.00    +0.002 A 
ATOM     14  C   UNL     1       4.546  -0.795  -1.633  0.00  0.00    +0.025 A 
ATOM     15  C   UNL     1       4.939   0.180  -0.731  0.00  0.00    +0.049 A 
ATOM     16  N   UNL     1       4.600   1.520  -0.914  0.00  0.00    -0.331 N 
ATOM     17  H   UNL     1       7.011   0.983   1.351  0.00  0.00    +0.152 HD
ATOM     18  H   UNL     1       4.990   2.014  -1.652  0.00  0.00    +0.147 HD
ENDROOT
BRANCH   1  21
ATOM     19  C   UNL     1       0.022   1.316  -0.435  0.00  0.00    +0.163 A 
ATOM     20  C   UNL     1       1.215   2.023  -0.441  0.00  0.00    +0.055 A 
ATOM     21  C   UNL     1       2.381   1.416  -0.013  0.00  0.00    -0.018 A 
ATOM     22  C   UNL     1       2.361   0.104   0.423  0.00  0.00    +0.025 A 
ATOM     23  C   UNL     1       1.175  -0.607   0.432  0.00  0.00    +0.063 A 
ATOM     24  C   UNL     1       0.002  -0.004   0.004  0.00  0.00    +0.173 A 
ATOM     25 BR   UNL     1       1.152  -2.401   1.029  0.00  0.00    -0.046 Br
BRANCH  19  27
ATOM     26  C   UNL     1      -1.028   3.268  -1.297  0.00  0.00    +0.277 C 
ATOM     27  O   UNL     1      -1.124   1.911  -0.861  0.00  0.00    -0.491 OA
ENDBRANCH  19  27
BRANCH  24  28
ATOM     28  O   UNL     1      -1.166  -0.701   0.013  0.00  0.00    -0.503 OA
ATOM     29  H   UNL     1      -1.345  -1.179  -0.809  0.00  0.00    +0.292 HD
ENDBRANCH  24  28
ENDBRANCH   1  21
BRANCH   5  30
ATOM     30  C   UNL     1       5.571   3.501   5.284  0.00  0.00    -0.006 A 
ATOM     31  C   UNL     1       6.417   4.397   5.848  0.00  0.00    +0.011 A 
ATOM     32  C   UNL     1       6.582   4.391   7.220  0.00  0.00    +0.008 A 
ATOM     33  C   UNL     1       5.894   3.488   7.961  0.00  0.00    +0.045 A 
ATOM     34  S   UNL     1       4.970   2.612   6.710  0.00  0.00    -0.101 S 
ENDBRANCH   5  30
TORSDOF 4
