REMARK  Name = ZINC13451639
REMARK  13 active torsions:
REMARK  status: ('A' for Active; 'I' for Inactive)
REMARK    1  A    between atoms: C_1  and  C_2
REMARK    2  A    between atoms: C_2  and  C_3
REMARK    3  A    between atoms: C_3  and  O_32
REMARK    4  A    between atoms: C_4  and  C_31
REMARK    5  A    between atoms: C_6  and  C_22
REMARK    6  A    between atoms: C_8  and  C_13
REMARK    7  A    between atoms: C_10  and  C_12
REMARK    8  A    between atoms: C_16  and  N_19
REMARK    9  A    between atoms: N_19  and  C_20
REMARK   10  A    between atoms: N_19  and  C_21
REMARK   11  A    between atoms: C_25  and  N_28
REMARK   12  A    between atoms: N_28  and  C_29
REMARK   13  A    between atoms: N_28  and  C_30
REMARK                            x       y       z     vdW  Elec       q    Type
REMARK                         _______ _______ _______ _____ _____    ______ ____
ROOT
ATOM      1  C   UNL     1       1.294   0.226  -1.534  0.00  0.00    +0.069 C 
ATOM      2  C   UNL     1      -0.142  -0.299  -1.461  0.00  0.00    +0.008 C 
ATOM      3  C   UNL     1      -0.931   0.529  -0.444  0.00  0.00    -0.034 C 
ATOM      4  C   UNL     1       0.438   2.479  -0.883  0.00  0.00    -0.034 C 
ATOM      5  C   UNL     1       1.269   1.709  -1.912  0.00  0.00    +0.008 C 
ATOM      6  C   UNL     1       2.697   2.256  -1.930  0.00  0.00    +0.009 C 
ATOM      7  C   UNL     1      -0.128  -1.766  -1.024  0.00  0.00    +0.009 C 
ATOM      8  N   UNL     1      -0.937   1.946  -0.854  0.00  0.00    +0.389 N 
ATOM      9  H   UNL     1      -1.496   2.489  -0.186  0.00  0.00    -0.084 HD
ATOM     10  H   UNL     1      -1.350   2.026  -1.791  0.00  0.00    -0.084 HD
ENDROOT
BRANCH   4  11
ATOM     11  C   UNL     1       1.067   2.334   0.479  0.00  0.00    -0.061 A 
ATOM     12  C   UNL     1       0.302   1.909   1.550  0.00  0.00    +0.004 A 
ATOM     13  C   UNL     1       0.876   1.770   2.798  0.00  0.00    +0.023 A 
ATOM     14  C   UNL     1       2.221   2.067   2.980  0.00  0.00    +0.029 A 
ATOM     15  C   UNL     1       2.985   2.499   1.903  0.00  0.00    +0.023 A 
ATOM     16  C   UNL     1       2.406   2.631   0.656  0.00  0.00    +0.004 A 
BRANCH  14  17
ATOM     17  N   UNL     1       2.804   1.933   4.242  0.00  0.00    -0.336 N 
ATOM     18  C   UNL     1       4.187   2.364   4.460  0.00  0.00    +0.129 C 
ATOM     19  C   UNL     1       2.031   1.363   5.348  0.00  0.00    +0.129 C 
ENDBRANCH  14  17
ENDBRANCH   4  11
BRANCH   3  20
ATOM     20  C   UNL     1      -2.352   0.028  -0.384  0.00  0.00    -0.061 A 
ATOM     21  C   UNL     1      -3.262   0.418  -1.349  0.00  0.00    +0.004 A 
ATOM     22  C   UNL     1      -4.563  -0.044  -1.300  0.00  0.00    +0.023 A 
ATOM     23  C   UNL     1      -4.959  -0.891  -0.273  0.00  0.00    +0.029 A 
ATOM     24  C   UNL     1      -4.043  -1.276   0.698  0.00  0.00    +0.023 A 
ATOM     25  C   UNL     1      -2.743  -0.816   0.640  0.00  0.00    +0.004 A 
BRANCH  23  26
ATOM     26  N   UNL     1      -6.275  -1.356  -0.217  0.00  0.00    -0.336 N 
ATOM     27  C   UNL     1      -6.724  -2.149   0.930  0.00  0.00    +0.129 C 
ATOM     28  C   UNL     1      -7.207  -1.050  -1.305  0.00  0.00    +0.129 C 
ENDBRANCH  23  26
ENDBRANCH   3  20
BRANCH   1  30
ATOM     29  C   UNL     1       1.339  -0.476  -3.931  0.00  0.00    +0.007 C 
ATOM     30  C   UNL     1       2.073  -0.560  -2.591  0.00  0.00    +0.032 C 
ENDBRANCH   1  30
BRANCH   1  31
ATOM     31  O   UNL     1       1.926   0.068  -0.261  0.00  0.00    -0.388 OA
ATOM     32  H   UNL     1       2.840   0.381  -0.235  0.00  0.00    +0.210 HD
ENDBRANCH   1  31
TORSDOF 6
