REMARK  Name = ZINC39126579
REMARK  9 active torsions:
REMARK  status: ('A' for Active; 'I' for Inactive)
REMARK    1  A    between atoms: C_1  and  C_2
REMARK    2  A    between atoms: C_2  and  C_3
REMARK    3  A    between atoms: C_2  and  C_4
REMARK    4  A    between atoms: C_2  and  N_5
REMARK    5  A    between atoms: N_5  and  C_6
REMARK    6  A    between atoms: C_7  and  C_24
REMARK    7  A    between atoms: C_8  and  C_22
REMARK    8  A    between atoms: C_10  and  C_13
REMARK    9  A    between atoms: C_28  and  N_30
REMARK                            x       y       z     vdW  Elec       q    Type
REMARK                         _______ _______ _______ _____ _____    ______ ____
ROOT
ATOM      1  C   UNL     1       2.005  -0.123  -1.433  0.00  0.00    +0.186 C 
ATOM      2  C   UNL     1       2.700  -0.513  -2.518  0.00  0.00    +0.037 C 
ATOM      3  C   UNL     1       4.086   0.099  -2.398  0.00  0.00    +0.172 C 
ATOM      4  C   UNL     1       3.866   1.170  -1.302  0.00  0.00    +0.228 C 
ATOM      5  O   UNL     1       2.725   0.653  -0.595  0.00  0.00    -0.469 OA
ENDROOT
BRANCH   4   6
ATOM      6  C   UNL     1       3.553   2.510  -1.917  0.00  0.00    +0.019 A 
ATOM      7  C   UNL     1       4.524   3.501  -2.387  0.00  0.00    +0.006 A 
ATOM      8  C   UNL     1       5.919   3.549  -2.429  0.00  0.00    +0.010 A 
ATOM      9  C   UNL     1       6.545   4.649  -2.945  0.00  0.00    +0.001 A 
ATOM     10  C   UNL     1       5.805   5.719  -3.428  0.00  0.00    +0.002 A 
ATOM     11  C   UNL     1       4.427   5.692  -3.397  0.00  0.00    +0.026 A 
ATOM     12  C   UNL     1       3.770   4.583  -2.876  0.00  0.00    +0.047 A 
ATOM     13  N   UNL     1       2.442   4.260  -2.710  0.00  0.00    -0.360 N 
ATOM     14  C   UNL     1       2.332   3.020  -2.142  0.00  0.00    +0.091 A 
ATOM     15  H   UNL     1       1.695   4.826  -2.961  0.00  0.00    +0.165 HD
ENDBRANCH   4   6
BRANCH   2  16
ATOM     16  C   UNL     1       2.212  -1.369  -3.611  0.00  0.00    -0.014 A 
ATOM     17  C   UNL     1       2.775  -2.632  -3.820  0.00  0.00    +0.008 A 
ATOM     18  C   UNL     1       2.312  -3.428  -4.846  0.00  0.00    +0.003 A 
ATOM     19  C   UNL     1       1.293  -2.980  -5.669  0.00  0.00    +0.033 A 
ATOM     20  C   UNL     1       0.731  -1.732  -5.469  0.00  0.00    +0.127 A 
ATOM     21  C   UNL     1       1.179  -0.926  -4.443  0.00  0.00    +0.041 A 
BRANCH  20  22
ATOM     22  N   UNL     1      -0.358  -1.262  -6.354  0.00  0.00    +0.056 N 
ATOM     23  O   UNL     1      -0.755  -1.969  -7.251  0.00  0.00    -0.126 OA
ATOM     24  O   UNL     1      -0.850  -0.172  -6.181  0.00  0.00    -0.126 OA
ENDBRANCH  20  22
ENDBRANCH   2  16
BRANCH   1  25
ATOM     25  N   UNL     1       0.688  -0.476  -1.203  0.00  0.00    -0.311 N 
ATOM     26  H   UNL     1       0.218  -1.037  -1.840  0.00  0.00    +0.149 HD
BRANCH  25  28
ATOM     27  C   UNL     1      -0.019   1.526   0.010  0.00  0.00    +0.031 C 
ATOM     28  C   UNL     1       0.002  -0.004   0.002  0.00  0.00    +0.026 C 
ATOM     29  C   UNL     1       0.742  -0.511   1.242  0.00  0.00    +0.031 C 
ATOM     30  C   UNL     1      -1.433  -0.534   0.013  0.00  0.00    +0.031 C 
ENDBRANCH  25  28
ENDBRANCH   1  25
BRANCH   3  31
ATOM     31  C   UNL     1       5.070  -0.906  -1.964  0.00  0.00    +0.075 C 
ATOM     32  N   UNL     1       5.829  -1.681  -1.628  0.00  0.00    -0.196 NA
ENDBRANCH   3  31
TORSDOF 6
