REMARK  Name = ZINC35807069
REMARK  5 active torsions:
REMARK  status: ('A' for Active; 'I' for Inactive)
REMARK    1  A    between atoms: C_1  and  C_2
REMARK    2  A    between atoms: C_2  and  C_3
REMARK    3  A    between atoms: C_23  and  C_31
REMARK    4  A    between atoms: C_31  and  C_33
REMARK    5  A    between atoms: C_36  and  C_39
REMARK                            x       y       z     vdW  Elec       q    Type
REMARK                         _______ _______ _______ _____ _____    ______ ____
ROOT
ATOM      1  C   UNL     1      -1.533  -0.525   0.081  0.00  0.00    -0.047 A 
ATOM      2  C   UNL     1      -2.193  -0.807   1.262  0.00  0.00    +0.005 A 
ATOM      3  C   UNL     1      -3.471  -1.325   1.240  0.00  0.00    +0.024 A 
ATOM      4  C   UNL     1      -4.107  -1.568   0.025  0.00  0.00    +0.036 A 
ATOM      5  C   UNL     1      -3.433  -1.280  -1.156  0.00  0.00    -0.026 A 
ATOM      6  C   UNL     1      -2.160  -0.758  -1.131  0.00  0.00    +0.008 A 
ATOM      7  C   UNL     1      -4.374  -1.649  -2.274  0.00  0.00    +0.060 C 
ATOM      8  C   UNL     1      -5.611  -2.159  -1.578  0.00  0.00    +0.212 C 
ATOM      9  O   UNL     1      -6.623  -2.564  -2.109  0.00  0.00    -0.277 OA
ATOM     10  N   UNL     1      -5.376  -2.080  -0.256  0.00  0.00    -0.286 N 
ATOM     11  C   UNL     1      -4.691  -0.445  -3.151  0.00  0.00    +0.085 C 
ATOM     12  C   UNL     1      -6.163  -0.321  -3.430  0.00  0.00    -0.011 A 
ATOM     13  C   UNL     1      -7.092  -1.157  -4.008  0.00  0.00    +0.006 A 
ATOM     14  C   UNL     1      -8.409  -0.751  -4.129  0.00  0.00    +0.000 A 
ATOM     15  C   UNL     1      -8.790   0.495  -3.667  0.00  0.00    +0.002 A 
ATOM     16  C   UNL     1      -7.863   1.336  -3.087  0.00  0.00    +0.023 A 
ATOM     17  C   UNL     1      -6.535   0.935  -2.961  0.00  0.00    +0.038 A 
ATOM     18  N   UNL     1      -5.430   1.594  -2.417  0.00  0.00    -0.285 N 
ATOM     19  C   UNL     1      -4.309   0.851  -2.490  0.00  0.00    +0.228 C 
ATOM     20  O   UNL     1      -3.205   1.166  -2.099  0.00  0.00    -0.275 OA
ATOM     21  C   UNL     1      -3.895  -0.665  -4.447  0.00  0.00    +0.066 C 
ATOM     22  C   UNL     1      -3.739  -2.194  -4.517  0.00  0.00    -0.055 C 
ATOM     23  N   UNL     1      -3.784  -2.695  -3.125  0.00  0.00    +0.395 N 
ATOM     24  C   UNL     1      -2.371  -2.889  -2.708  0.00  0.00    -0.076 C 
ATOM     25  C   UNL     1      -1.665  -3.377  -3.996  0.00  0.00    -0.020 C 
ATOM     26  C   UNL     1      -2.378  -2.563  -5.122  0.00  0.00    -0.016 C 
ATOM     27  H   UNL     1      -6.014  -2.347   0.424  0.00  0.00    +0.155 HD
ATOM     28  H   UNL     1      -5.466   2.483  -2.032  0.00  0.00    +0.155 HD
ATOM     29  H   UNL     1      -4.315  -3.551  -3.066  0.00  0.00    -0.079 HD
ENDROOT
BRANCH   1  31
ATOM     30  C   UNL     1      -0.205   1.568   0.146  0.00  0.00    +0.009 C 
ATOM     31  C   UNL     1      -0.136   0.040   0.112  0.00  0.00    +0.032 C 
ENDBRANCH   1  31
BRANCH  21  32
ATOM     32  C   UNL     1      -4.665  -0.151  -5.636  0.00  0.00    +0.166 C 
ATOM     33  O   UNL     1      -5.383  -0.901  -6.263  0.00  0.00    -0.292 OA
BRANCH  32  34
ATOM     34  C   UNL     1      -4.546   1.260  -6.037  0.00  0.00    +0.018 A 
ATOM     35  C   UNL     1      -3.627   2.097  -5.395  0.00  0.00    +0.011 A 
ATOM     36  C   UNL     1      -3.521   3.418  -5.776  0.00  0.00    +0.004 A 
ATOM     37  C   UNL     1      -4.321   3.916  -6.790  0.00  0.00    -0.050 A 
ATOM     38  C   UNL     1      -5.232   3.094  -7.430  0.00  0.00    +0.004 A 
ATOM     39  C   UNL     1      -5.346   1.769  -7.064  0.00  0.00    +0.011 A 
ATOM     40  C   UNL     1      -4.198   5.361  -7.201  0.00  0.00    +0.044 C 
ENDBRANCH  32  34
ENDBRANCH  21  32
TORSDOF 3
