REMARK  Name = ZINC15226720
REMARK  4 active torsions:
REMARK  status: ('A' for Active; 'I' for Inactive)
REMARK    1  A    between atoms: C_6  and  C_11
REMARK    2  A    between atoms: C_16  and  C_18
REMARK    3  A    between atoms: C_22  and  C_25
REMARK    4  A    between atoms: N_27  and  N_28
REMARK                            x       y       z     vdW  Elec       q    Type
REMARK                         _______ _______ _______ _____ _____    ______ ____
ROOT
ATOM      1  C   UNL     1       4.647   3.826   0.003  0.00  0.00    +0.095 C 
ATOM      2  N   UNL     1       4.531   5.133  -0.098  0.00  0.00    -0.147 NA
ATOM      3  N   UNL     1       5.564   6.080  -0.125  0.00  0.00    -0.125 NA
ATOM      4  C   UNL     1       6.859   5.914  -0.067  0.00  0.00    +0.191 C 
ATOM      5  N   UNL     1       7.657   4.785   0.040  0.00  0.00    -0.237 N 
ATOM      6  C   UNL     1       7.154   3.450   0.116  0.00  0.00    +0.123 C 
ATOM      7  C   UNL     1       5.896   3.034   0.101  0.00  0.00    +0.058 C 
ATOM      8  C   UNL     1       9.029   5.002   0.073  0.00  0.00    +0.111 C 
ATOM      9  C   UNL     1       9.524   6.257   0.002  0.00  0.00    +0.077 C 
ATOM     10  S   UNL     1       8.041   7.243  -0.119  0.00  0.00    -0.058 S 
ENDROOT
BRANCH   1  16
ATOM     11  C   UNL     1      -0.178  -0.441   0.045  0.00  0.00    +0.001 A 
ATOM     12  C   UNL     1       1.034  -1.128   0.029  0.00  0.00    +0.001 A 
ATOM     13  C   UNL     1       2.218  -0.457   0.020  0.00  0.00    +0.008 A 
ATOM     14  C   UNL     1       2.222   0.950   0.021  0.00  0.00    -0.017 A 
ATOM     15  C   UNL     1       3.424   1.672   0.012  0.00  0.00    +0.018 A 
ATOM     16  C   UNL     1       3.386   3.059   0.014  0.00  0.00    +0.003 A 
ATOM     17  C   UNL     1       2.154   3.739   0.025  0.00  0.00    +0.011 A 
ATOM     18  C   UNL     1       0.983   3.056   0.034  0.00  0.00    +0.009 A 
ATOM     19  C   UNL     1       0.987   1.648   0.033  0.00  0.00    -0.018 A 
ATOM     20  C   UNL     1      -0.214   0.920   0.042  0.00  0.00    +0.008 A 
ENDBRANCH   1  16
BRANCH   6  21
ATOM     21  C   UNL     1       8.196   2.368   0.228  0.00  0.00    +0.431 C 
ATOM     22  F   UNL     1       7.575   1.115   0.181  0.00  0.00    -0.165 F 
ATOM     23  F   UNL     1       9.100   2.479  -0.834  0.00  0.00    -0.165 F 
ATOM     24  F   UNL     1       8.882   2.503   1.440  0.00  0.00    -0.165 F 
ENDBRANCH   6  21
BRANCH   8  25
ATOM     25  C   UNL     1       9.944   3.863   0.184  0.00  0.00    +0.275 C 
ATOM     26  O   UNL     1      10.213   3.404   1.279  0.00  0.00    -0.267 OA
ATOM     27  N   UNL     1      10.488   3.324  -0.925  0.00  0.00    -0.230 N 
ATOM     28  H   UNL     1      10.274   3.690  -1.797  0.00  0.00    +0.173 HD
BRANCH  27  29
ATOM     29  N   UNL     1      11.363   2.235  -0.818  0.00  0.00    -0.237 N 
ATOM     30  C   UNL     1      11.907   1.696  -1.927  0.00  0.00    +0.343 C 
ATOM     31  O   UNL     1      12.664   0.753  -1.834  0.00  0.00    -0.278 OA
ATOM     32  H   UNL     1      11.577   1.869   0.055  0.00  0.00    +0.173 HD
ENDBRANCH  27  29
ENDBRANCH   8  25
TORSDOF 4
