REMARK  Name = ZINC16116162
REMARK  11 active torsions:
REMARK  status: ('A' for Active; 'I' for Inactive)
REMARK    1  A    between atoms: C_1  and  C_2
REMARK    2  A    between atoms: C_2  and  O_3
REMARK    3  A    between atoms: O_3  and  C_4
REMARK    4  A    between atoms: C_7  and  C_10
REMARK    5  A    between atoms: C_11  and  C_21
REMARK    6  A    between atoms: N_13  and  C_15
REMARK    7  A    between atoms: C_23  and  C_30
REMARK    8  A    between atoms: C_24  and  C_29
REMARK    9  A    between atoms: C_30  and  O_32
REMARK   10  A    between atoms: O_32  and  C_33
REMARK   11  A    between atoms: C_33  and  C_34
REMARK                            x       y       z     vdW  Elec       q    Type
REMARK                         _______ _______ _______ _____ _____    ______ ____
ROOT
ATOM      1  C   UNL     1       2.442   0.291   0.213  0.00  0.00    +0.098 A 
ATOM      2  C   UNL     1       1.496  -0.717  -0.059  0.00  0.00    +0.023 A 
ATOM      3  C   UNL     1       0.265  -0.195   0.136  0.00  0.00    +0.121 A 
ATOM      4  N   UNL     1       0.418   1.100   0.519  0.00  0.00    -0.239 N 
ATOM      5  N   UNL     1       1.789   1.381   0.560  0.00  0.00    -0.166 NA
ENDROOT
BRANCH   2   6
ATOM      6  C   UNL     1       1.802  -2.128  -0.490  0.00  0.00    +0.145 C 
ATOM      7  C   UNL     1       1.216  -2.331  -1.873  0.00  0.00    +0.078 C 
ATOM      8  C   UNL     1       0.316  -3.326  -2.033  0.00  0.00    +0.019 C 
ATOM      9  N   UNL     1      -0.051  -4.120  -0.986  0.00  0.00    -0.300 N 
ATOM     10  C   UNL     1       0.435  -3.985   0.254  0.00  0.00    +0.135 C 
ATOM     11  S   UNL     1      -0.112  -5.050   1.478  0.00  0.00    -0.019 S 
ATOM     12  N   UNL     1       1.340  -3.038   0.571  0.00  0.00    -0.315 N 
ATOM     13  C   UNL     1      -0.292  -3.563  -3.392  0.00  0.00    +0.061 C 
ATOM     14  H   UNL     1      -0.700  -4.822  -1.149  0.00  0.00    +0.154 HD
ATOM     15  H   UNL     1       1.679  -2.958   1.476  0.00  0.00    +0.149 HD
BRANCH   7  16
ATOM     16  C   UNL     1       1.596  -1.508  -2.957  0.00  0.00    +0.339 C 
ATOM     17  O   UNL     1       1.033  -1.616  -4.030  0.00  0.00    -0.245 OA
BRANCH  16  18
ATOM     18  O   UNL     1       2.584  -0.602  -2.802  0.00  0.00    -0.457 OA
BRANCH  18  19
ATOM     19  C   UNL     1       2.996   0.115  -3.967  0.00  0.00    +0.259 C 
BRANCH  19  20
ATOM     20  C   UNL     1       4.178   0.987  -3.629  0.00  0.00    +0.006 C 
ATOM     21  C   UNL     1       5.238   0.982  -4.399  0.00  0.00    +0.007 C 
ENDBRANCH  19  20
ENDBRANCH  18  19
ENDBRANCH  16  18
ENDBRANCH   7  16
ENDBRANCH   2   6
BRANCH   1  25
ATOM     22  C   UNL     1       6.669  -0.115  -0.042  0.00  0.00    +0.121 A 
ATOM     23  C   UNL     1       6.057   1.050  -0.485  0.00  0.00    +0.046 A 
ATOM     24  C   UNL     1       4.686   1.184  -0.403  0.00  0.00    +0.013 A 
ATOM     25  C   UNL     1       3.916   0.149   0.124  0.00  0.00    +0.003 A 
ATOM     26  C   UNL     1       4.534  -1.017   0.572  0.00  0.00    +0.013 A 
ATOM     27  C   UNL     1       5.904  -1.147   0.484  0.00  0.00    +0.046 A 
BRANCH  22  28
ATOM     28  O   UNL     1       8.019  -0.244  -0.122  0.00  0.00    -0.492 OA
BRANCH  28  30
ATOM     29  C   UNL     1      10.103  -1.430   0.180  0.00  0.00    +0.048 C 
ATOM     30  C   UNL     1       8.583  -1.469   0.351  0.00  0.00    +0.225 C 
ENDBRANCH  28  30
ENDBRANCH  22  28
ENDBRANCH   1  25
BRANCH   4  31
ATOM     31  C   UNL     1      -0.616   1.998   0.815  0.00  0.00    +0.065 A 
ATOM     32  C   UNL     1      -1.940   1.590   0.722  0.00  0.00    +0.028 A 
ATOM     33  C   UNL     1      -2.957   2.477   1.019  0.00  0.00    +0.002 A 
ATOM     34  C   UNL     1      -2.657   3.772   1.398  0.00  0.00    +0.000 A 
ATOM     35  C   UNL     1      -1.340   4.183   1.486  0.00  0.00    +0.002 A 
ATOM     36  C   UNL     1      -0.319   3.300   1.195  0.00  0.00    +0.028 A 
ENDBRANCH   4  31
TORSDOF 9
