REMARK  Name = ZINC45626121
REMARK  10 active torsions:
REMARK  status: ('A' for Active; 'I' for Inactive)
REMARK    1  A    between atoms: C_1  and  C_2
REMARK    2  A    between atoms: C_2  and  C_3
REMARK    3  A    between atoms: C_2  and  C_4
REMARK    4  A    between atoms: C_4  and  C_5
REMARK    5  A    between atoms: C_5  and  N_6
REMARK    6  A    between atoms: C_7  and  C_9
REMARK    7  A    between atoms: C_9  and  O_10
REMARK    8  A    between atoms: O_10  and  C_11
REMARK    9  A    between atoms: C_11  and  C_13
REMARK   10  A    between atoms: C_15  and  N_20
REMARK                            x       y       z     vdW  Elec       q    Type
REMARK                         _______ _______ _______ _____ _____    ______ ____
ROOT
ATOM      1  C   UNL     1      -5.610  -6.460  -0.339  0.00  0.00    +0.341 C 
ATOM      2  O   UNL     1      -6.636  -5.817  -0.242  0.00  0.00    -0.245 OA
ENDROOT
BRANCH   1   3
ATOM      3  C   UNL     1      -5.671  -7.931  -0.466  0.00  0.00    +0.075 A 
ATOM      4  C   UNL     1      -4.494  -8.674  -0.572  0.00  0.00    +0.038 A 
ATOM      5  C   UNL     1      -4.558 -10.053  -0.690  0.00  0.00    +0.025 A 
ATOM      6  C   UNL     1      -5.793 -10.693  -0.703  0.00  0.00    +0.024 A 
ATOM      7  C   UNL     1      -6.959  -9.959  -0.598  0.00  0.00    +0.018 A 
ATOM      8  C   UNL     1      -6.906  -8.584  -0.473  0.00  0.00    +0.032 A 
ATOM      9 BR   UNL     1      -8.505  -7.585  -0.322  0.00  0.00    -0.049 Br
BRANCH   5  10
ATOM     10  N   UNL     1      -3.383 -10.801  -0.796  0.00  0.00    -0.358 N 
ATOM     11  H   UNL     1      -2.522 -10.354  -0.788  0.00  0.00    +0.142 HD
ATOM     12  H   UNL     1      -3.428 -11.766  -0.879  0.00  0.00    +0.142 HD
ENDBRANCH   5  10
ENDBRANCH   1   3
BRANCH   1  13
ATOM     13  O   UNL     1      -4.418  -5.833  -0.332  0.00  0.00    -0.452 OA
BRANCH  13  14
ATOM     14  C   UNL     1      -4.435  -4.410  -0.207  0.00  0.00    +0.328 C 
BRANCH  14  16
ATOM     15  N   UNL     1      -2.790  -2.565  -0.111  0.00  0.00    -0.313 N 
ATOM     16  C   UNL     1      -3.021  -3.888  -0.217  0.00  0.00    +0.251 C 
ATOM     17  O   UNL     1      -2.091  -4.660  -0.322  0.00  0.00    -0.272 OA
ATOM     18  H   UNL     1      -3.534  -1.948  -0.027  0.00  0.00    +0.149 HD
BRANCH  15  19
ATOM     19  C   UNL     1      -1.416  -2.058  -0.121  0.00  0.00    +0.104 C 
BRANCH  19  20
ATOM     20  C   UNL     1      -1.433  -0.534   0.013  0.00  0.00    +0.022 C 
BRANCH  20  22
ATOM     21  C   UNL     1      -0.019   1.526   0.010  0.00  0.00    +0.007 C 
ATOM     22  C   UNL     1       0.002  -0.004   0.002  0.00  0.00    -0.016 C 
ATOM     23  C   UNL     1       0.742  -0.511   1.242  0.00  0.00    +0.007 C 
ENDBRANCH  20  22
ENDBRANCH  19  20
ENDBRANCH  15  19
ENDBRANCH  14  16
ENDBRANCH  13  14
ENDBRANCH   1  13
TORSDOF 8
