REMARK  Name = ZINC36046934
REMARK  11 active torsions:
REMARK  status: ('A' for Active; 'I' for Inactive)
REMARK    1  A    between atoms: C_1  and  C_2
REMARK    2  A    between atoms: C_2  and  O_3
REMARK    3  A    between atoms: O_3  and  C_4
REMARK    4  A    between atoms: C_7  and  C_10
REMARK    5  A    between atoms: N_15  and  C_16
REMARK    6  A    between atoms: C_16  and  C_17
REMARK    7  A    between atoms: C_18  and  C_30
REMARK    8  A    between atoms: C_19  and  C_25
REMARK    9  A    between atoms: C_30  and  O_32
REMARK   10  A    between atoms: O_32  and  C_33
REMARK   11  A    between atoms: C_33  and  C_34
REMARK                            x       y       z     vdW  Elec       q    Type
REMARK                         _______ _______ _______ _____ _____    ______ ____
ROOT
ATOM      1  C   UNL     1      -5.041  -5.534  -2.173  0.00  0.00    +0.008 C 
ATOM      2  C   UNL     1      -4.891  -5.975  -3.441  0.00  0.00    +0.079 C 
ATOM      3  C   UNL     1      -6.133  -6.428  -4.181  0.00  0.00    +0.179 C 
ATOM      4  N   UNL     1      -7.410  -6.349  -3.452  0.00  0.00    -0.285 N 
ATOM      5  C   UNL     1      -7.399  -5.886  -2.186  0.00  0.00    +0.304 C 
ATOM      6  O   UNL     1      -8.448  -5.817  -1.576  0.00  0.00    -0.252 OA
ATOM      7  N   UNL     1      -6.270  -5.503  -1.578  0.00  0.00    -0.274 N 
ATOM      8  H   UNL     1      -8.240  -6.624  -3.873  0.00  0.00    +0.151 HD
ATOM      9  H   UNL     1      -6.328  -5.183  -0.664  0.00  0.00    +0.156 HD
ENDROOT
BRANCH   3  10
ATOM     10  C   UNL     1      -6.260  -5.593  -5.429  0.00  0.00    +0.130 A 
ATOM     11  C   UNL     1      -5.904  -5.974  -6.669  0.00  0.00    +0.047 A 
ATOM     12  C   UNL     1      -6.194  -4.890  -7.530  0.00  0.00    +0.041 A 
ATOM     13  C   UNL     1      -6.710  -3.912  -6.764  0.00  0.00    +0.195 A 
ATOM     14  O   UNL     1      -6.753  -4.346  -5.494  0.00  0.00    -0.466 OA
ENDBRANCH   3  10
BRANCH   2  15
ATOM     15  C   UNL     1      -3.619  -6.012  -4.056  0.00  0.00    +0.339 C 
ATOM     16  O   UNL     1      -2.637  -5.626  -3.449  0.00  0.00    -0.245 OA
BRANCH  15  17
ATOM     17  O   UNL     1      -3.492  -6.476  -5.317  0.00  0.00    -0.462 OA
BRANCH  17  18
ATOM     18  C   UNL     1      -2.178  -6.484  -5.877  0.00  0.00    +0.229 C 
ATOM     19  C   UNL     1      -2.233  -7.039  -7.302  0.00  0.00    +0.048 C 
ENDBRANCH  17  18
ENDBRANCH  15  17
ENDBRANCH   2  15
BRANCH   1  20
ATOM     20  C   UNL     1      -3.832  -5.074  -1.400  0.00  0.00    -0.026 C 
BRANCH  20  25
ATOM     21  C   UNL     1      -1.886  -5.817  -0.194  0.00  0.00    -0.037 C 
ATOM     22  C   UNL     1      -1.948  -6.170   1.307  0.00  0.00    -0.013 C 
ATOM     23  C   UNL     1      -3.029  -7.282   1.360  0.00  0.00    -0.020 C 
ATOM     24  C   UNL     1      -4.020  -6.807   0.269  0.00  0.00    -0.078 C 
ATOM     25  N   UNL     1      -3.164  -6.236  -0.798  0.00  0.00    +0.388 N 
ATOM     26  H   UNL     1      -2.992  -6.933  -1.507  0.00  0.00    -0.080 HD
BRANCH  21  30
ATOM     27  C   UNL     1      -1.365  -1.603  -0.676  0.00  0.00    +0.121 A 
ATOM     28  C   UNL     1      -0.546  -2.487  -1.362  0.00  0.00    +0.046 A 
ATOM     29  C   UNL     1      -0.716  -3.849  -1.205  0.00  0.00    +0.005 A 
ATOM     30  C   UNL     1      -1.702  -4.331  -0.364  0.00  0.00    -0.061 A 
ATOM     31  C   UNL     1      -2.521  -3.451   0.321  0.00  0.00    +0.005 A 
ATOM     32  C   UNL     1      -2.350  -2.089   0.172  0.00  0.00    +0.046 A 
BRANCH  27  33
ATOM     33  O   UNL     1      -1.199  -0.263  -0.829  0.00  0.00    -0.492 OA
BRANCH  33  35
ATOM     34  C   UNL     1      -0.131   1.695  -1.760  0.00  0.00    +0.048 C 
ATOM     35  C   UNL     1      -0.166   0.166  -1.717  0.00  0.00    +0.225 C 
ENDBRANCH  33  35
ENDBRANCH  27  33
ENDBRANCH  21  30
ENDBRANCH  20  25
ENDBRANCH   1  20
TORSDOF 9
