REMARK  Name = ZINC37063739
REMARK  11 active torsions:
REMARK  status: ('A' for Active; 'I' for Inactive)
REMARK    1  A    between atoms: C_1  and  C_2
REMARK    2  A    between atoms: C_2  and  C_3
REMARK    3  A    between atoms: C_2  and  C_4
REMARK    4  A    between atoms: C_2  and  C_18
REMARK    5  A    between atoms: C_4  and  N_5
REMARK    6  A    between atoms: N_5  and  S_6
REMARK    7  A    between atoms: S_6  and  C_9
REMARK    8  A    between atoms: C_12  and  N_16
REMARK    9  A    between atoms: C_18  and  N_19
REMARK   10  A    between atoms: N_19  and  C_20
REMARK   11  A    between atoms: N_19  and  C_21
REMARK                            x       y       z     vdW  Elec       q    Type
REMARK                         _______ _______ _______ _____ _____    ______ ____
ROOT
ATOM      1  S   UNL     1      -3.963   1.214   0.663  0.00  0.00    +0.061 S 
ATOM      2  O   UNL     1      -4.263   2.221   1.620  0.00  0.00    -0.153 OA
ATOM      3  O   UNL     1      -4.322   1.333  -0.707  0.00  0.00    -0.153 OA
ENDROOT
BRANCH   1   4
ATOM      4  C   UNL     1      -4.702  -0.274   1.250  0.00  0.00    +0.133 A 
ATOM      5  C   UNL     1      -5.015  -1.287   0.361  0.00  0.00    +0.047 A 
ATOM      6  C   UNL     1      -5.595  -2.454   0.819  0.00  0.00    +0.040 A 
ATOM      7  C   UNL     1      -5.864  -2.611   2.173  0.00  0.00    +0.027 A 
ATOM      8  C   UNL     1      -5.548  -1.592   3.063  0.00  0.00    +0.040 A 
ATOM      9  C   UNL     1      -4.963  -0.429   2.600  0.00  0.00    +0.047 A 
ATOM     10 BR   UNL     1      -4.526   0.956   3.812  0.00  0.00    -0.048 Br
ATOM     11 BR   UNL     1      -4.649  -1.073  -1.481  0.00  0.00    -0.048 Br
BRANCH   7  12
ATOM     12  N   UNL     1      -6.450  -3.790   2.638  0.00  0.00    -0.358 N 
ATOM     13  H   UNL     1      -6.671  -4.500   2.016  0.00  0.00    +0.142 HD
ATOM     14  H   UNL     1      -6.638  -3.898   3.584  0.00  0.00    +0.142 HD
ENDBRANCH   7  12
ENDBRANCH   1   4
BRANCH   1  15
ATOM     15  N   UNL     1      -2.322   0.995   0.705  0.00  0.00    -0.189 NA
ATOM     16  H   UNL     1      -1.776   1.531   1.302  0.00  0.00    +0.148 HD
BRANCH  15  17
ATOM     17  C   UNL     1      -1.694  -0.008  -0.159  0.00  0.00    +0.110 C 
BRANCH  17  19
ATOM     18  C   UNL     1       0.085   1.635  -0.774  0.00  0.00    +0.010 C 
ATOM     19  C   UNL     1      -0.185   0.238  -0.213  0.00  0.00    -0.036 C 
ATOM     20  C   UNL     1       0.399   0.133   1.197  0.00  0.00    +0.010 C 
BRANCH  19  21
ATOM     21  C   UNL     1       0.470  -0.810  -1.115  0.00  0.00    -0.072 C 
BRANCH  21  22
ATOM     22  N   UNL     1       1.930  -0.657  -1.062  0.00  0.00    +0.376 N 
ATOM     23  C   UNL     1       2.457  -1.388   0.098  0.00  0.00    -0.097 C 
ATOM     24  C   UNL     1       2.524  -1.198  -2.292  0.00  0.00    -0.097 C 
ATOM     25  H   UNL     1       2.163   0.321  -0.978  0.00  0.00    -0.083 HD
ENDBRANCH  21  22
ENDBRANCH  19  21
ENDBRANCH  17  19
ENDBRANCH  15  17
ENDBRANCH   1  15
TORSDOF 7
