REMARK  Name = ZINC02084359
REMARK  5 active torsions:
REMARK  status: ('A' for Active; 'I' for Inactive)
REMARK    1  A    between atoms: C_5  and  O_7
REMARK    2  A    between atoms: O_7  and  C_8
REMARK    3  A    between atoms: C_8  and  C_9
REMARK    4  A    between atoms: N_11  and  C_12
REMARK    5  A    between atoms: C_13  and  C_23
REMARK                            x       y       z     vdW  Elec       q    Type
REMARK                         _______ _______ _______ _____ _____    ______ ____
ROOT
ATOM      1  C   UNL     1      -4.026   5.882   0.053  0.00  0.00    +0.084 A 
ATOM      2  C   UNL     1      -4.425   7.205   0.068  0.00  0.00    +0.068 A 
ATOM      3  C   UNL     1      -5.863   7.499   0.052  0.00  0.00    -0.023 A 
ATOM      4  C   UNL     1      -6.643   6.406   0.072  0.00  0.00    -0.004 A 
ATOM      5  S   UNL     1      -5.529   5.024   0.056  0.00  0.00    -0.077 S 
ATOM      6  C   UNL     1      -8.142   6.322   0.158  0.00  0.00    +0.043 C 
ATOM      7  C   UNL     1      -8.512   6.514   1.639  0.00  0.00    +0.005 C 
ATOM      8  C   UNL     1      -7.865   7.815   2.131  0.00  0.00    +0.000 C 
ATOM      9  C   UNL     1      -8.483   8.912   1.293  0.00  0.00    +0.000 C 
ATOM     10  C   UNL     1      -7.827   9.099  -0.064  0.00  0.00    +0.005 C 
ATOM     11  C   UNL     1      -6.311   8.960  -0.005  0.00  0.00    +0.037 C 
ENDROOT
BRANCH   2  12
ATOM     12  C   UNL     1      -3.437   8.288   0.094  0.00  0.00    +0.244 C 
ATOM     13  O   UNL     1      -3.015   8.753  -0.949  0.00  0.00    -0.270 OA
ATOM     14  N   UNL     1      -2.995   8.768   1.274  0.00  0.00    -0.325 N 
ATOM     15  H   UNL     1      -3.331   8.398   2.105  0.00  0.00    +0.145 HD
ATOM     16  H   UNL     1      -2.341   9.485   1.291  0.00  0.00    +0.145 HD
ENDBRANCH   2  12
BRANCH   1  19
ATOM     17  C   UNL     1      -2.545   4.035   0.036  0.00  0.00    +0.255 C 
ATOM     18  O   UNL     1      -3.498   3.284   0.036  0.00  0.00    -0.272 OA
ATOM     19  N   UNL     1      -2.738   5.369   0.044  0.00  0.00    -0.277 N 
ATOM     20  H   UNL     1      -1.977   5.969   0.044  0.00  0.00    +0.155 HD
BRANCH  17  21
ATOM     21  C   UNL     1      -1.145   3.476   0.026  0.00  0.00    +0.325 C 
BRANCH  21  22
ATOM     22  O   UNL     1      -1.202   2.048   0.019  0.00  0.00    -0.482 OA
BRANCH  22  27
ATOM     23  C   UNL     1       2.380   1.413  -0.014  0.00  0.00    +0.004 A 
ATOM     24  C   UNL     1       2.397   0.031  -0.021  0.00  0.00    +0.001 A 
ATOM     25  C   UNL     1       1.209  -0.677  -0.013  0.00  0.00    +0.019 A 
ATOM     26  C   UNL     1       0.002  -0.004   0.002  0.00  0.00    +0.059 A 
ATOM     27  C   UNL     1      -0.017   1.384   0.010  0.00  0.00    +0.135 A 
ATOM     28  C   UNL     1       1.177   2.091   0.002  0.00  0.00    +0.047 A 
ATOM     29 BR   UNL     1      -1.622  -0.973   0.012  0.00  0.00    -0.047 Br
ENDBRANCH  22  27
ENDBRANCH  21  22
ENDBRANCH  17  21
ENDBRANCH   1  19
TORSDOF 5
