REMARK  Name = ZINC09557260
REMARK  9 active torsions:
REMARK  status: ('A' for Active; 'I' for Inactive)
REMARK    1  A    between atoms: C_1  and  C_2
REMARK    2  A    between atoms: C_2  and  C_3
REMARK    3  A    between atoms: C_3  and  N_4
REMARK    4  A    between atoms: C_14  and  C_27
REMARK    5  A    between atoms: C_15  and  O_26
REMARK    6  A    between atoms: N_18  and  C_19
REMARK    7  A    between atoms: C_19  and  C_20
REMARK    8  A    between atoms: C_27  and  C_29
REMARK    9  A    between atoms: C_36  and  C_39
REMARK                            x       y       z     vdW  Elec       q    Type
REMARK                         _______ _______ _______ _____ _____    ______ ____
ROOT
ATOM      1  N   UNL     1      -0.224   4.995   0.038  0.00  0.00    -0.269 N 
ATOM      2  C   UNL     1      -0.051   3.611  -0.000  0.00  0.00    +0.042 A 
ATOM      3  C   UNL     1       1.108   2.838  -0.036  0.00  0.00    +0.024 A 
ATOM      4  C   UNL     1       1.024   1.462  -0.072  0.00  0.00    +0.002 A 
ATOM      5  C   UNL     1      -0.210   0.838  -0.072  0.00  0.00    +0.000 A 
ATOM      6  C   UNL     1      -1.366   1.597  -0.042  0.00  0.00    +0.008 A 
ATOM      7  C   UNL     1      -1.286   2.971  -0.000  0.00  0.00    +0.011 A 
ATOM      8  C   UNL     1      -2.320   4.064   0.045  0.00  0.00    +0.174 C 
ATOM      9  C   UNL     1      -1.524   5.344   0.066  0.00  0.00    +0.253 C 
ATOM     10  O   UNL     1      -1.969   6.472   0.100  0.00  0.00    -0.272 OA
ATOM     11  C   UNL     1      -3.228   4.008  -1.153  0.00  0.00    +0.083 C 
ATOM     12  C   UNL     1      -4.489   3.870  -0.673  0.00  0.00    +0.189 C 
ATOM     13  C   UNL     1      -4.443   3.833   0.804  0.00  0.00    +0.283 C 
ATOM     14  O   UNL     1      -5.412   3.717   1.529  0.00  0.00    -0.267 OA
ATOM     15  N   UNL     1      -3.169   3.947   1.228  0.00  0.00    -0.271 N 
ENDROOT
BRANCH  12  16
ATOM     16  O   UNL     1      -5.609   3.780  -1.426  0.00  0.00    -0.502 OA
ATOM     17  H   UNL     1      -6.405   3.685  -0.829  0.00  0.00    +0.292 HD
ENDBRANCH  12  16
BRANCH  11  18
ATOM     18  C   UNL     1      -2.829   4.087  -2.562  0.00  0.00    +0.196 C 
ATOM     19  O   UNL     1      -2.323   3.123  -3.106  0.00  0.00    -0.287 OA
BRANCH  18  20
ATOM     20  C   UNL     1      -3.041   5.335  -3.321  0.00  0.00    +0.023 A 
ATOM     21  C   UNL     1      -3.729   6.405  -2.739  0.00  0.00    +0.015 A 
ATOM     22  C   UNL     1      -3.922   7.568  -3.446  0.00  0.00    +0.046 A 
ATOM     23  C   UNL     1      -3.437   7.693  -4.749  0.00  0.00    +0.124 A 
ATOM     24  C   UNL     1      -2.759   6.622  -5.325  0.00  0.00    -0.002 A 
ATOM     25  C   UNL     1      -2.552   5.459  -4.625  0.00  0.00    +0.019 A 
ATOM     26  C   UNL     1      -2.373   7.045  -6.729  0.00  0.00    +0.083 C 
ATOM     27  C   UNL     1      -3.272   8.285  -6.947  0.00  0.00    +0.175 C 
ATOM     28  O   UNL     1      -3.510   8.746  -5.606  0.00  0.00    -0.488 OA
ATOM     29  C   UNL     1      -2.537   9.351  -7.763  0.00  0.00    +0.052 C 
ENDBRANCH  18  20
ENDBRANCH  11  18
BRANCH   1  30
ATOM     30  C   UNL     1       0.880   5.957   0.047  0.00  0.00    +0.113 C 
BRANCH  30  32
ATOM     31  C   UNL     1       2.555   7.146  -1.375  0.00  0.00    +0.005 C 
ATOM     32  C   UNL     1       1.324   6.239  -1.390  0.00  0.00    +0.016 C 
ENDBRANCH  30  32
ENDBRANCH   1  30
BRANCH  15  33
ATOM     33  C   UNL     1      -2.717   3.953   2.621  0.00  0.00    +0.141 C 
BRANCH  33  34
ATOM     34  C   UNL     1      -2.701   5.389   3.147  0.00  0.00    +0.136 C 
ATOM     35  C   UNL     1      -2.117   5.418   4.576  0.00  0.00    +0.035 C 
ATOM     36  C   UNL     1      -3.018   6.469   5.279  0.00  0.00    +0.031 C 
ATOM     37  C   UNL     1      -4.375   6.211   4.576  0.00  0.00    +0.160 C 
ATOM     38  O   UNL     1      -4.038   5.897   3.216  0.00  0.00    -0.375 OA
ENDBRANCH  33  34
ENDBRANCH  15  33
TORSDOF 7
