REMARK  Name = ZINC24276145
REMARK  9 active torsions:
REMARK  status: ('A' for Active; 'I' for Inactive)
REMARK    1  A    between atoms: C_4  and  C_7
REMARK    2  A    between atoms: C_7  and  C_8
REMARK    3  A    between atoms: C_8  and  C_10
REMARK    4  A    between atoms: C_8  and  N_27
REMARK    5  A    between atoms: N_12  and  C_13
REMARK    6  A    between atoms: C_13  and  C_14
REMARK    7  A    between atoms: C_17  and  C_20
REMARK    8  A    between atoms: C_20  and  N_21
REMARK    9  A    between atoms: C_28  and  C_30
REMARK                            x       y       z     vdW  Elec       q    Type
REMARK                         _______ _______ _______ _____ _____    ______ ____
ROOT
ATOM      1  C   UNL     1      -0.081  -2.025   1.436  0.00  0.00    +0.234 C 
ATOM      2  O   UNL     1       0.916  -2.702   1.576  0.00  0.00    -0.274 OA
ATOM      3  N   UNL     1      -1.281  -2.618   1.276  0.00  0.00    -0.310 N 
ATOM      4  H   UNL     1      -2.184  -2.004   1.149  0.00  0.00    +0.149 HD
ENDROOT
BRANCH   1   5
ATOM      5  C   UNL     1       0.023  -0.522   1.442  0.00  0.00    +0.163 C 
BRANCH   5   6
ATOM      6  N   UNL     1       1.275  -0.121   2.087  0.00  0.00    -0.299 N 
ATOM      7  C   UNL     1       2.456  -0.526   1.578  0.00  0.00    +0.251 C 
ATOM      8  O   UNL     1       2.481  -1.226   0.582  0.00  0.00    -0.270 OA
ATOM      9  H   UNL     1       1.253   0.512   2.987  0.00  0.00    +0.150 HD
BRANCH   7  10
ATOM     10  C   UNL     1       3.709  -0.125   2.224  0.00  0.00    +0.074 A 
ATOM     11  C   UNL     1       5.013  -0.430   1.865  0.00  0.00    +0.021 A 
ATOM     12  C   UNL     1       6.013   0.082   2.653  0.00  0.00    +0.008 A 
ATOM     13  C   UNL     1       5.686   0.849   3.726  0.00  0.00    +0.046 A 
ATOM     14  S   UNL     1       3.954   0.889   3.670  0.00  0.00    -0.092 S 
ENDBRANCH   7  10
ENDBRANCH   5   6
BRANCH   5  15
ATOM     15  C   UNL     1       0.002  -0.004   0.002  0.00  0.00    +0.067 C 
BRANCH  15  19
ATOM     16  C   UNL     1      -0.056   4.267   0.025  0.00  0.00    +0.000 A 
ATOM     17  C   UNL     1       1.151   3.592   0.010  0.00  0.00    +0.000 A 
ATOM     18  C   UNL     1       1.169   2.210   0.003  0.00  0.00    +0.004 A 
ATOM     19  C   UNL     1      -0.018   1.503   0.010  0.00  0.00    -0.045 A 
ATOM     20  C   UNL     1      -1.225   2.178   0.020  0.00  0.00    +0.004 A 
ATOM     21  C   UNL     1      -1.244   3.560   0.032  0.00  0.00    +0.000 A 
ENDBRANCH  15  19
ENDBRANCH   5  15
ENDBRANCH   1   5
BRANCH   3  22
ATOM     22  C   UNL     1      -1.381  -4.079   1.271  0.00  0.00    +0.139 C 
BRANCH  22  23
ATOM     23  C   UNL     1      -2.820  -4.483   1.077  0.00  0.00    -0.030 A 
ATOM     24  C   UNL     1      -3.640  -4.667   2.175  0.00  0.00    +0.005 A 
ATOM     25  C   UNL     1      -4.961  -5.033   1.997  0.00  0.00    +0.002 A 
ATOM     26  C   UNL     1      -5.460  -5.224   0.722  0.00  0.00    -0.064 A 
ATOM     27  C   UNL     1      -4.638  -5.045  -0.376  0.00  0.00    +0.002 A 
ATOM     28  C   UNL     1      -3.318  -4.675  -0.198  0.00  0.00    +0.005 A 
BRANCH  26  29
ATOM     29  C   UNL     1      -6.899  -5.627   0.528  0.00  0.00    -0.043 C 
BRANCH  29  30
ATOM     30  N   UNL     1      -7.001  -7.093   0.522  0.00  0.00    +0.382 N 
ATOM     31  C   UNL     1      -6.313  -7.663  -0.644  0.00  0.00    -0.078 C 
ATOM     32  C   UNL     1      -6.313  -9.190  -0.541  0.00  0.00    -0.019 C 
ATOM     33  C   UNL     1      -7.759  -9.692  -0.482  0.00  0.00    -0.004 C 
ATOM     34  C   UNL     1      -8.467  -9.046   0.712  0.00  0.00    -0.019 C 
ATOM     35  C   UNL     1      -8.404  -7.523   0.573  0.00  0.00    -0.078 C 
ATOM     36  H   UNL     1      -6.500  -7.472   1.425  0.00  0.00    -0.081 HD
ENDBRANCH  29  30
ENDBRANCH  26  29
ENDBRANCH  22  23
ENDBRANCH   3  22
TORSDOF 9
