REMARK  Name = ZINC19126115
REMARK  13 active torsions:
REMARK  status: ('A' for Active; 'I' for Inactive)
REMARK    1  A    between atoms: C_1  and  C_2
REMARK    2  A    between atoms: C_6  and  C_15
REMARK    3  A    between atoms: C_13  and  C_14
REMARK    4  A    between atoms: C_15  and  C_17
REMARK    5  A    between atoms: C_15  and  N_26
REMARK    6  A    between atoms: N_21  and  C_22
REMARK    7  A    between atoms: C_22  and  C_23
REMARK    8  A    between atoms: C_22  and  C_24
REMARK    9  A    between atoms: C_22  and  C_25
REMARK   10  A    between atoms: N_26  and  C_27
REMARK   11  A    between atoms: N_26  and  C_33
REMARK   12  A    between atoms: C_27  and  C_28
REMARK   13  A    between atoms: C_33  and  C_34
REMARK                            x       y       z     vdW  Elec       q    Type
REMARK                         _______ _______ _______ _____ _____    ______ ____
ROOT
ATOM      1  C   UNL     1      -0.044  -4.559  -3.160  0.00  0.00    +0.039 C 
ENDROOT
BRANCH   1   7
ATOM      2  C   UNL     1      -0.205   2.565  -0.960  0.00  0.00    +0.044 C 
ATOM      3  C   UNL     1      -0.361   1.095  -0.667  0.00  0.00    -0.047 A 
ATOM      4  C   UNL     1      -0.160   0.180  -1.662  0.00  0.00    +0.013 A 
ATOM      5  C   UNL     1      -0.305  -1.184  -1.390  0.00  0.00    -0.001 A 
ATOM      6  C   UNL     1      -0.097  -2.190  -2.433  0.00  0.00    +0.017 A 
ATOM      7  C   UNL     1      -0.251  -3.498  -2.111  0.00  0.00    +0.011 A 
ATOM      8  C   UNL     1      -0.604  -3.869  -0.796  0.00  0.00    +0.251 A 
ATOM      9  O   UNL     1      -0.737  -5.051  -0.527  0.00  0.00    -0.268 OA
ATOM     10  N   UNL     1      -0.797  -2.953   0.169  0.00  0.00    -0.322 N 
ATOM     11  H   UNL     1      -1.039  -3.242   1.062  0.00  0.00    +0.169 HD
ATOM     12  C   UNL     1      -0.657  -1.607  -0.094  0.00  0.00    +0.049 A 
ATOM     13  C   UNL     1      -0.857  -0.658   0.903  0.00  0.00    +0.030 A 
ATOM     14  C   UNL     1      -0.703   0.681   0.614  0.00  0.00    -0.046 A 
ATOM     15  C   UNL     1      -0.913   1.707   1.697  0.00  0.00    +0.044 C 
ENDBRANCH   1   7
BRANCH   1  16
ATOM     16  C   UNL     1       1.146  -5.407  -2.790  0.00  0.00    +0.143 A 
ATOM     17  N   UNL     1       1.196  -6.316  -1.847  0.00  0.00    -0.115 NA
ATOM     18  N   UNL     1       2.382  -6.819  -1.842  0.00  0.00    -0.023 NA
ATOM     19  N   UNL     1       3.090  -6.255  -2.757  0.00  0.00    -0.043 NA
ATOM     20  N   UNL     1       2.361  -5.382  -3.367  0.00  0.00    -0.225 N 
BRANCH  20  21
ATOM     21  C   UNL     1       2.780  -4.523  -4.478  0.00  0.00    +0.059 C 
ATOM     22  C   UNL     1       2.499  -3.061  -4.124  0.00  0.00    +0.036 C 
ATOM     23  C   UNL     1       4.278  -4.708  -4.729  0.00  0.00    +0.036 C 
ATOM     24  C   UNL     1       2.000  -4.902  -5.738  0.00  0.00    +0.036 C 
ENDBRANCH  20  21
ENDBRANCH   1  16
BRANCH   1  25
ATOM     25  N   UNL     1      -1.242  -5.406  -3.244  0.00  0.00    +0.396 N 
ATOM     26  H   UNL     1      -1.334  -5.942  -2.394  0.00  0.00    -0.080 HD
BRANCH  25  27
ATOM     27  C   UNL     1      -1.118  -6.318  -4.388  0.00  0.00    -0.002 C 
BRANCH  27  28
ATOM     28  C   UNL     1      -0.091  -7.377  -4.078  0.00  0.00    +0.089 A 
ATOM     29  C   UNL     1      -0.306  -8.495  -3.362  0.00  0.00    +0.042 A 
ATOM     30  C   UNL     1       0.920  -9.197  -3.320  0.00  0.00    +0.041 A 
ATOM     31  C   UNL     1       1.812  -8.465  -4.013  0.00  0.00    +0.195 A 
ATOM     32  O   UNL     1       1.192  -7.367  -4.474  0.00  0.00    -0.470 OA
ENDBRANCH  27  28
ENDBRANCH  25  27
BRANCH  25  33
ATOM     33  C   UNL     1      -2.429  -4.558  -3.419  0.00  0.00    -0.045 C 
BRANCH  33  34
ATOM     34  C   UNL     1      -3.687  -5.429  -3.381  0.00  0.00    +0.102 C 
ATOM     35  C   UNL     1      -4.930  -4.565  -3.684  0.00  0.00    +0.032 C 
ATOM     36  C   UNL     1      -5.982  -5.145  -2.700  0.00  0.00    +0.030 C 
ATOM     37  C   UNL     1      -5.083  -5.515  -1.493  0.00  0.00    +0.160 C 
ATOM     38  O   UNL     1      -3.853  -5.985  -2.071  0.00  0.00    -0.378 OA
ENDBRANCH  33  34
ENDBRANCH  25  33
ENDBRANCH   1  25
TORSDOF 8
