REMARK  Name = ZINC64156448
REMARK  11 active torsions:
REMARK  status: ('A' for Active; 'I' for Inactive)
REMARK    1  A    between atoms: C_1  and  O_2
REMARK    2  A    between atoms: O_2  and  C_3
REMARK    3  A    between atoms: C_7  and  C_11
REMARK    4  A    between atoms: C_8  and  O_9
REMARK    5  A    between atoms: O_9  and  C_10
REMARK    6  A    between atoms: C_11  and  C_13
REMARK    7  A    between atoms: C_11  and  C_30
REMARK    8  A    between atoms: C_13  and  N_14
REMARK    9  A    between atoms: C_15  and  C_17
REMARK   10  A    between atoms: C_17  and  C_18
REMARK   11  A    between atoms: C_18  and  N_19
REMARK                            x       y       z     vdW  Elec       q    Type
REMARK                         _______ _______ _______ _____ _____    ______ ____
ROOT
ATOM      1  C   UNL     1       1.329  -4.110  -2.298  0.00  0.00    +0.068 C 
ENDROOT
BRANCH   1   2
ATOM      2  C   UNL     1       0.628  -4.568  -3.550  0.00  0.00    -0.033 C 
ATOM      3  C   UNL     1      -0.450  -5.382  -3.627  0.00  0.00    -0.000 A 
ATOM      4  C   UNL     1      -1.260  -6.059  -2.607  0.00  0.00    +0.010 A 
ATOM      5  C   UNL     1      -2.301  -6.827  -2.999  0.00  0.00    +0.001 A 
ATOM      6  C   UNL     1      -2.625  -6.993  -4.353  0.00  0.00    +0.002 A 
ATOM      7  C   UNL     1      -1.928  -6.404  -5.348  0.00  0.00    +0.026 A 
ATOM      8  C   UNL     1      -0.813  -5.573  -5.049  0.00  0.00    +0.043 A 
ATOM      9  N   UNL     1       0.008  -4.904  -5.822  0.00  0.00    -0.380 N 
ATOM     10  C   UNL     1       0.983  -4.207  -4.975  0.00  0.00    +0.145 C 
ATOM     11  H   UNL     1      -0.026  -4.872  -6.790  0.00  0.00    +0.160 HD
ENDBRANCH   1   2
BRANCH   1  16
ATOM     12  C   UNL     1       0.606  -0.608  -1.056  0.00  0.00    +0.162 A 
ATOM     13  C   UNL     1       1.173   0.159  -2.062  0.00  0.00    +0.049 A 
ATOM     14  C   UNL     1       1.787  -0.456  -3.137  0.00  0.00    +0.004 A 
ATOM     15  C   UNL     1       1.837  -1.836  -3.212  0.00  0.00    +0.008 A 
ATOM     16  C   UNL     1       1.273  -2.606  -2.212  0.00  0.00    +0.007 A 
ATOM     17  C   UNL     1       0.662  -1.996  -1.129  0.00  0.00    +0.165 A 
BRANCH  12  19
ATOM     18  C   UNL     1      -0.017   1.425   0.010  0.00  0.00    +0.277 C 
ATOM     19  O   UNL     1       0.002  -0.004   0.002  0.00  0.00    -0.491 OA
ENDBRANCH  12  19
BRANCH  17  20
ATOM     20  O   UNL     1       0.112  -2.753  -0.142  0.00  0.00    -0.491 OA
ATOM     21  C   UNL     1      -1.259  -3.125  -0.297  0.00  0.00    +0.277 C 
ENDBRANCH  17  20
ENDBRANCH   1  16
BRANCH   1  22
ATOM     22  C   UNL     1       2.790  -4.564  -2.336  0.00  0.00    +0.116 C 
BRANCH  22  23
ATOM     23  N   UNL     1       2.847  -6.028  -2.298  0.00  0.00    -0.314 N 
ATOM     24  C   UNL     1       4.039  -6.656  -2.322  0.00  0.00    +0.215 C 
ATOM     25  O   UNL     1       5.064  -6.011  -2.375  0.00  0.00    -0.276 OA
ATOM     26  H   UNL     1       2.027  -6.544  -2.256  0.00  0.00    +0.149 HD
BRANCH  24  27
ATOM     27  C   UNL     1       4.098  -8.162  -2.284  0.00  0.00    +0.119 C 
BRANCH  27  28
ATOM     28  C   UNL     1       5.558  -8.616  -2.321  0.00  0.00    +0.158 C 
BRANCH  28  29
ATOM     29  N   UNL     1       5.615 -10.080  -2.284  0.00  0.00    -0.210 N 
ATOM     30  C   UNL     1       5.607 -10.787  -3.439  0.00  0.00    +0.278 A 
ATOM     31  O   UNL     1       5.553 -10.231  -4.520  0.00  0.00    -0.265 OA
ATOM     32  C   UNL     1       5.666 -12.252  -3.335  0.00  0.00    +0.068 A 
ATOM     33  C   UNL     1       5.663 -13.068  -4.465  0.00  0.00    +0.015 A 
ATOM     34  C   UNL     1       5.720 -14.436  -4.317  0.00  0.00    +0.001 A 
ATOM     35  C   UNL     1       5.781 -15.007  -3.052  0.00  0.00    +0.002 A 
ATOM     36  C   UNL     1       5.785 -14.220  -1.923  0.00  0.00    +0.030 A 
ATOM     37  C   UNL     1       5.727 -12.829  -2.047  0.00  0.00    +0.100 A 
ATOM     38  N   UNL     1       5.730 -12.023  -0.957  0.00  0.00    -0.131 NA
ATOM     39  N   UNL     1       5.684 -10.744  -1.056  0.00  0.00    -0.062 NA
ENDBRANCH  28  29
ENDBRANCH  27  28
ENDBRANCH  24  27
ENDBRANCH  22  23
ENDBRANCH   1  22
TORSDOF 9
