REMARK  Name = ZINC19300808
REMARK  6 active torsions:
REMARK  status: ('A' for Active; 'I' for Inactive)
REMARK    1  A    between atoms: C_4  and  N_7
REMARK    2  A    between atoms: C_9  and  C_21
REMARK    3  A    between atoms: C_10  and  C_12
REMARK    4  A    between atoms: C_21  and  N_22
REMARK    5  A    between atoms: N_22  and  C_23
REMARK    6  A    between atoms: C_23  and  C_24
REMARK                            x       y       z     vdW  Elec       q    Type
REMARK                         _______ _______ _______ _____ _____    ______ ____
ROOT
ATOM      1  N   UNL     1       3.569   6.463  -4.990  0.00  0.00    -0.239 N 
ATOM      2  C   UNL     1       3.961   6.189  -3.718  0.00  0.00    +0.116 A 
ATOM      3  C   UNL     1       2.960   6.557  -2.889  0.00  0.00    -0.019 A 
ATOM      4  C   UNL     1       1.917   7.085  -3.676  0.00  0.00    +0.095 A 
ATOM      5  N   UNL     1       2.288   7.026  -4.938  0.00  0.00    -0.166 NA
ENDROOT
BRANCH   4   6
ATOM      6  C   UNL     1       0.626   7.614  -3.171  0.00  0.00    +0.006 A 
ATOM      7  C   UNL     1      -0.065   6.931  -2.172  0.00  0.00    +0.014 A 
ATOM      8  C   UNL     1      -1.266   7.424  -1.703  0.00  0.00    +0.050 A 
ATOM      9  C   UNL     1      -1.788   8.599  -2.223  0.00  0.00    +0.166 A 
ATOM     10  C   UNL     1      -1.101   9.286  -3.222  0.00  0.00    +0.167 A 
ATOM     11  C   UNL     1       0.106   8.798  -3.690  0.00  0.00    +0.059 A 
ATOM     12  O   UNL     1      -1.818  10.398  -3.559  0.00  0.00    -0.453 OA
ATOM     13  C   UNL     1      -2.742  10.602  -2.475  0.00  0.00    +0.466 C 
ATOM     14  O   UNL     1      -2.936   9.281  -1.936  0.00  0.00    -0.453 OA
ENDBRANCH   4   6
BRANCH   1  18
ATOM     15  C   UNL     1       5.799   5.766  -8.442  0.00  0.00    +0.000 A 
ATOM     16  C   UNL     1       4.540   6.330  -8.536  0.00  0.00    +0.002 A 
ATOM     17  C   UNL     1       3.799   6.562  -7.394  0.00  0.00    +0.028 A 
ATOM     18  C   UNL     1       4.319   6.228  -6.151  0.00  0.00    +0.065 A 
ATOM     19  C   UNL     1       5.585   5.667  -6.059  0.00  0.00    +0.028 A 
ATOM     20  C   UNL     1       6.320   5.433  -7.205  0.00  0.00    +0.002 A 
ENDBRANCH   1  18
BRANCH   3  21
ATOM     21  C   UNL     1       2.961   6.431  -1.387  0.00  0.00    -0.043 C 
BRANCH  21  22
ATOM     22  N   UNL     1       3.147   7.758  -0.785  0.00  0.00    +0.385 N 
ATOM     23  H   UNL     1       4.146   8.141  -1.042  0.00  0.00    -0.085 HD
ATOM     24  H   UNL     1       2.380   8.447  -1.170  0.00  0.00    -0.085 HD
BRANCH  22  25
ATOM     25  C   UNL     1       3.030   7.694   0.678  0.00  0.00    -0.026 C 
BRANCH  25  26
ATOM     26  C   UNL     1       3.226   9.070   1.259  0.00  0.00    +0.023 A 
ATOM     27  C   UNL     1       4.445   9.627   1.656  0.00  0.00    -0.006 A 
ATOM     28  C   UNL     1       4.199  10.867   2.139  0.00  0.00    +0.066 A 
ATOM     29  N   UNL     1       2.873  11.089   2.049  0.00  0.00    -0.178 NA
ATOM     30  H   UNL     1       1.231   9.691   1.288  0.00  0.00    +0.188 HD
ATOM     31  N   UNL     1       2.280   9.940   1.510  0.00  0.00    -0.283 N 
ATOM     32  C   UNL     1       5.235  11.820   2.679  0.00  0.00    +0.057 C 
ATOM     33  C   UNL     1       6.423  11.880   1.731  0.00  0.00    +0.006 C 
ATOM     34  C   UNL     1       7.434  10.794   2.090  0.00  0.00    +0.001 C 
ATOM     35  C   UNL     1       6.724   9.553   2.623  0.00  0.00    +0.005 C 
ATOM     36  C   UNL     1       5.800   8.971   1.565  0.00  0.00    +0.039 C 
ENDBRANCH  25  26
ENDBRANCH  22  25
ENDBRANCH  21  22
ENDBRANCH   3  21
TORSDOF 6
