REMARK  Name = ZINC56948763
REMARK  4 active torsions:
REMARK  status: ('A' for Active; 'I' for Inactive)
REMARK    1  A    between atoms: C_6  and  C_7
REMARK    2  A    between atoms: C_7  and  C_12
REMARK    3  A    between atoms: C_12  and  N_13
REMARK    4  A    between atoms: C_20  and  O_23
REMARK                            x       y       z     vdW  Elec       q    Type
REMARK                         _______ _______ _______ _____ _____    ______ ____
ROOT
ATOM      1  C   UNL     1      -2.055  -0.500   1.309  0.00  0.00    +0.117 C 
ENDROOT
BRANCH   1   2
ATOM      2  N   UNL     1      -2.434   0.913   1.362  0.00  0.00    -0.298 N 
ATOM      3  C   UNL     1      -3.034   1.409   2.462  0.00  0.00    +0.302 C 
ATOM      4  O   UNL     1      -3.342   0.666   3.374  0.00  0.00    -0.253 OA
ATOM      5  N   UNL     1      -3.293   2.729   2.552  0.00  0.00    -0.283 N 
ATOM      6  C   UNL     1      -3.038   3.621   1.413  0.00  0.00    +0.109 C 
ATOM      7  C   UNL     1      -4.317   4.404   1.102  0.00  0.00    +0.022 C 
ATOM      8  C   UNL     1      -4.791   5.121   2.368  0.00  0.00    +0.034 C 
ATOM      9  C   UNL     1      -5.108   4.089   3.453  0.00  0.00    +0.132 C 
ATOM     10  C   UNL     1      -3.842   3.302   3.788  0.00  0.00    +0.140 C 
ATOM     11  H   UNL     1      -2.254   1.493   0.605  0.00  0.00    +0.150 HD
BRANCH   9  12
ATOM     12  O   UNL     1      -5.580   4.758   4.624  0.00  0.00    -0.390 OA
ATOM     13  H   UNL     1      -5.800   4.164   5.355  0.00  0.00    +0.210 HD
ENDBRANCH   9  12
ENDBRANCH   1   2
BRANCH   1  14
ATOM     14  C   UNL     1      -1.288  -0.774   0.013  0.00  0.00    +0.011 C 
ATOM     15  C   UNL     1      -2.126  -0.333  -1.199  0.00  0.00    +0.013 C 
ATOM     16  C   UNL     1      -2.363  -1.595  -2.054  0.00  0.00    +0.001 C 
ATOM     17  C   UNL     1      -2.208  -2.766  -1.053  0.00  0.00    +0.001 C 
ATOM     18  C   UNL     1      -1.046  -2.290  -0.147  0.00  0.00    +0.013 C 
BRANCH  14  24
ATOM     19  C   UNL     1       0.904  -0.172  -1.034  0.00  0.00    +0.005 A 
ATOM     20  C   UNL     1       2.110   0.502  -1.022  0.00  0.00    +0.020 A 
ATOM     21  C   UNL     1       2.441   1.309   0.052  0.00  0.00    +0.041 A 
ATOM     22  C   UNL     1       1.564   1.440   1.114  0.00  0.00    +0.020 A 
ATOM     23  C   UNL     1       0.358   0.766   1.101  0.00  0.00    +0.005 A 
ATOM     24  C   UNL     1       0.028  -0.040   0.027  0.00  0.00    -0.040 A 
ATOM     25 CL   UNL     1       3.957   2.155   0.068  0.00  0.00    -0.084 Cl
ENDBRANCH  14  24
ENDBRANCH   1  14
TORSDOF 4
