REMARK  Name = ZINC45616383
REMARK  11 active torsions:
REMARK  status: ('A' for Active; 'I' for Inactive)
REMARK    1  A    between atoms: C_1  and  C_2
REMARK    2  A    between atoms: C_2  and  C_3
REMARK    3  A    between atoms: C_3  and  C_4
REMARK    4  A    between atoms: C_4  and  C_6
REMARK    5  A    between atoms: C_4  and  C_21
REMARK    6  A    between atoms: C_6  and  N_7
REMARK    7  A    between atoms: C_8  and  C_10
REMARK    8  A    between atoms: C_10  and  S_11
REMARK    9  A    between atoms: S_11  and  C_12
REMARK   10  A    between atoms: C_15  and  C_19
REMARK   11  A    between atoms: C_16  and  N_18
REMARK                            x       y       z     vdW  Elec       q    Type
REMARK                         _______ _______ _______ _____ _____    ______ ____
ROOT
ATOM      1  N   UNL     1       1.229  -2.139  -1.104  0.00  0.00    -0.314 N 
ATOM      2  C   UNL     1       1.925  -2.378  -2.233  0.00  0.00    +0.223 C 
ATOM      3  O   UNL     1       3.012  -2.913  -2.173  0.00  0.00    -0.275 OA
ATOM      4  H   UNL     1       0.360  -1.710  -1.152  0.00  0.00    +0.149 HD
ENDROOT
BRANCH   1   5
ATOM      5  C   UNL     1       1.784  -2.526   0.195  0.00  0.00    +0.112 C 
BRANCH   5   6
ATOM      6  C   UNL     1       0.847  -2.058   1.310  0.00  0.00    +0.038 C 
BRANCH   6   7
ATOM      7  C   UNL     1       1.346  -2.575   2.635  0.00  0.00    -0.024 A 
ATOM      8  C   UNL     1       2.602  -2.217   3.088  0.00  0.00    +0.007 A 
ATOM      9  C   UNL     1       3.060  -2.691   4.303  0.00  0.00    +0.020 A 
ATOM     10  C   UNL     1       2.261  -3.524   5.067  0.00  0.00    +0.042 A 
ATOM     11  C   UNL     1       1.004  -3.882   4.614  0.00  0.00    +0.040 A 
ATOM     12  C   UNL     1       0.544  -3.404   3.400  0.00  0.00    +0.046 A 
ATOM     13 CL   UNL     1      -1.035  -3.848   2.834  0.00  0.00    -0.083 Cl
ATOM     14 CL   UNL     1       2.837  -4.119   6.593  0.00  0.00    -0.083 Cl
ENDBRANCH   6   7
BRANCH   6  15
ATOM     15  C   UNL     1       0.813  -0.529   1.340  0.00  0.00    +0.009 C 
BRANCH  15  17
ATOM     16  C   UNL     1      -0.346   1.462   2.306  0.00  0.00    +0.004 C 
ATOM     17  C   UNL     1      -0.221  -0.061   2.366  0.00  0.00    -0.003 C 
ENDBRANCH  15  17
ENDBRANCH   6  15
ENDBRANCH   5   6
ENDBRANCH   1   5
BRANCH   2  18
ATOM     18  C   UNL     1       1.354  -1.980  -3.569  0.00  0.00    +0.173 C 
BRANCH  18  19
ATOM     19  S   UNL     1       2.519  -2.431  -4.884  0.00  0.00    -0.077 S 
BRANCH  19  20
ATOM     20  C   UNL     1       1.717  -1.907  -6.363  0.00  0.00    +0.190 A 
ATOM     21  N   UNL     1       0.525  -1.327  -6.278  0.00  0.00    -0.229 NA
ATOM     22  C   UNL     1      -0.113  -0.919  -7.359  0.00  0.00    +0.136 A 
ATOM     23  C   UNL     1       0.482  -1.104  -8.611  0.00  0.00    +0.109 A 
ATOM     24  C   UNL     1       1.749  -1.724  -8.662  0.00  0.00    +0.138 A 
ATOM     25  N   UNL     1       2.324  -2.100  -7.526  0.00  0.00    -0.206 NA
BRANCH  24  26
ATOM     26  N   UNL     1       2.382  -1.932  -9.871  0.00  0.00    -0.342 N 
ATOM     27  H   UNL     1       1.956  -1.651 -10.696  0.00  0.00    +0.144 HD
ATOM     28  H   UNL     1       3.253  -2.359  -9.895  0.00  0.00    +0.144 HD
ENDBRANCH  24  26
BRANCH  23  29
ATOM     29  C   UNL     1      -0.176  -0.676  -9.809  0.00  0.00    +0.104 C 
ATOM     30  N   UNL     1      -0.698  -0.337 -10.759  0.00  0.00    -0.191 NA
ENDBRANCH  23  29
ENDBRANCH  19  20
ENDBRANCH  18  19
ENDBRANCH   2  18
TORSDOF 10
