REMARK  Name = ZINC35358080
REMARK  3 active torsions:
REMARK  status: ('A' for Active; 'I' for Inactive)
REMARK    1  A    between atoms: C_1  and  C_2
REMARK    2  A    between atoms: N_7  and  S_8
REMARK    3  A    between atoms: S_8  and  C_11
REMARK                            x       y       z     vdW  Elec       q    Type
REMARK                         _______ _______ _______ _____ _____    ______ ____
ROOT
ATOM      1  S   UNL     1      -0.096  -5.153  -0.024  0.00  0.00    +0.101 S 
ATOM      2  O   UNL     1      -0.774  -5.121   1.224  0.00  0.00    -0.146 OA
ATOM      3  O   UNL     1      -0.785  -5.108  -1.266  0.00  0.00    -0.146 OA
ENDROOT
BRANCH   1   4
ATOM      4  C   UNL     1       0.868  -6.628  -0.036  0.00  0.00    +0.113 A 
ATOM      5  C   UNL     1       1.243  -7.194  -1.252  0.00  0.00    +0.031 A 
ATOM      6  C   UNL     1       1.987  -8.333  -1.297  0.00  0.00    +0.030 A 
ATOM      7  C   UNL     1       2.387  -8.953  -0.100  0.00  0.00    +0.073 A 
ATOM      8  C   UNL     1       2.004  -8.375   1.136  0.00  0.00    +0.002 A 
ATOM      9  C   UNL     1       1.240  -7.196   1.144  0.00  0.00    +0.039 A 
ATOM     10  C   UNL     1       2.405  -8.997   2.334  0.00  0.00    +0.013 A 
ATOM     11  C   UNL     1       3.150 -10.137   2.250  0.00  0.00    +0.041 A 
ATOM     12  C   UNL     1       3.494 -10.654   1.001  0.00  0.00    +0.130 A 
ATOM     13  N   UNL     1       3.118 -10.072  -0.114  0.00  0.00    -0.235 NA
ATOM     14 CL   UNL     1       4.442 -12.106   0.918  0.00  0.00    -0.062 Cl
ENDBRANCH   1   4
BRANCH   1  21
ATOM     15  C   UNL     1      -0.018   1.503   0.010  0.00  0.00    +0.053 C 
ATOM     16  C   UNL     1       0.002  -0.004   0.002  0.00  0.00    +0.006 A 
ATOM     17  C   UNL     1      -1.023  -0.856   0.002  0.00  0.00    +0.095 A 
ATOM     18  N   UNL     1      -0.798  -2.201  -0.006  0.00  0.00    -0.339 N 
ATOM     19  C   UNL     1       0.505  -2.649  -0.014  0.00  0.00    +0.192 A 
ATOM     20  S   UNL     1       1.406  -1.107  -0.018  0.00  0.00    -0.054 S 
ATOM     21  N   UNL     1       0.961  -3.878  -0.022  0.00  0.00    -0.103 NA
ATOM     22  H   UNL     1      -1.538  -2.828  -0.006  0.00  0.00    +0.167 HD
ENDBRANCH   1  21
TORSDOF 2
