REMARK  Name = ZINC67081447
REMARK  4 active torsions:
REMARK  status: ('A' for Active; 'I' for Inactive)
REMARK    1  A    between atoms: C_5  and  C_7
REMARK    2  A    between atoms: N_16  and  C_17
REMARK    3  A    between atoms: C_17  and  C_18
REMARK    4  A    between atoms: C_18  and  C_21
REMARK                            x       y       z     vdW  Elec       q    Type
REMARK                         _______ _______ _______ _____ _____    ______ ____
ROOT
ATOM      1  C   UNL     1       1.194  -2.195  -0.035  0.00  0.00    +0.168 C 
ATOM      2  C   UNL     1       1.336  -2.714   1.400  0.00  0.00    +0.145 C 
ATOM      3  N   UNL     1       1.178  -4.177   1.383  0.00  0.00    -0.281 N 
ATOM      4  C   UNL     1       0.005  -4.737   0.693  0.00  0.00    +0.137 C 
ATOM      5  C   UNL     1      -0.073  -4.120  -0.708  0.00  0.00    +0.179 C 
ATOM      6  O   UNL     1      -0.021  -2.695  -0.599  0.00  0.00    -0.369 OA
ATOM      7  C   UNL     1       2.080  -4.980   1.980  0.00  0.00    +0.302 C 
ATOM      8  O   UNL     1       3.092  -4.506   2.459  0.00  0.00    -0.253 OA
ATOM      9  N   UNL     1       1.861  -6.308   2.047  0.00  0.00    -0.298 N 
ATOM     10  H   UNL     1       1.090  -6.695   1.604  0.00  0.00    +0.150 HD
ENDROOT
BRANCH   1  15
ATOM     11  C   UNL     1      -0.082   1.359  -0.005  0.00  0.00    +0.001 A 
ATOM     12  C   UNL     1       1.100   2.077  -0.006  0.00  0.00    +0.003 A 
ATOM     13  C   UNL     1       2.312   1.415  -0.017  0.00  0.00    +0.039 A 
ATOM     14  C   UNL     1       2.344   0.030  -0.026  0.00  0.00    +0.129 A 
ATOM     15  C   UNL     1       1.161  -0.688  -0.025  0.00  0.00    +0.018 A 
ATOM     16  C   UNL     1      -0.051  -0.023  -0.014  0.00  0.00    +0.009 A 
ATOM     17  F   UNL     1       3.529  -0.619  -0.037  0.00  0.00    -0.205 F 
ENDBRANCH   1  15
BRANCH   9  18
ATOM     18  C   UNL     1       2.786  -7.167   2.791  0.00  0.00    +0.117 C 
BRANCH  18  19
ATOM     19  C   UNL     1       2.382  -8.631   2.607  0.00  0.00    +0.011 C 
ATOM     20  C   UNL     1       3.437  -9.590   2.053  0.00  0.00    +0.014 C 
ATOM     21  C   UNL     1       2.262  -9.156   1.175  0.00  0.00    +0.014 C 
BRANCH  19  22
ATOM     22  C   UNL     1       1.417  -9.172   3.630  0.00  0.00    -0.036 A 
ATOM     23  C   UNL     1       0.536 -10.179   3.282  0.00  0.00    +0.008 A 
ATOM     24  C   UNL     1      -0.350 -10.680   4.217  0.00  0.00    +0.050 A 
ATOM     25  C   UNL     1      -0.358 -10.172   5.506  0.00  0.00    +0.166 A 
ATOM     26  C   UNL     1       0.530  -9.158   5.857  0.00  0.00    +0.167 A 
ATOM     27  C   UNL     1       1.419  -8.665   4.916  0.00  0.00    +0.053 A 
ATOM     28  O   UNL     1       0.327  -8.834   7.167  0.00  0.00    -0.453 OA
ATOM     29  C   UNL     1      -0.966  -9.373   7.501  0.00  0.00    +0.466 C 
ATOM     30  O   UNL     1      -1.117 -10.484   6.597  0.00  0.00    -0.453 OA
ENDBRANCH  19  22
ENDBRANCH  18  19
ENDBRANCH   9  18
TORSDOF 4
