REMARK  Name = ZINC21071940
REMARK  13 active torsions:
REMARK  status: ('A' for Active; 'I' for Inactive)
REMARK    1  A    between atoms: C_1  and  C_2
REMARK    2  A    between atoms: C_2  and  N_3
REMARK    3  A    between atoms: N_3  and  C_4
REMARK    4  A    between atoms: N_3  and  C_6
REMARK    5  A    between atoms: C_4  and  C_5
REMARK    6  A    between atoms: C_6  and  C_8
REMARK    7  A    between atoms: C_6  and  C_28
REMARK    8  A    between atoms: C_8  and  N_9
REMARK    9  A    between atoms: C_10  and  C_12
REMARK   10  A    between atoms: C_12  and  C_13
REMARK   11  A    between atoms: C_13  and  N_14
REMARK   12  A    between atoms: C_32  and  O_34
REMARK   13  A    between atoms: O_34  and  C_35
REMARK                            x       y       z     vdW  Elec       q    Type
REMARK                         _______ _______ _______ _____ _____    ______ ____
ROOT
ATOM      1  N   UNL     1      -0.873   4.343   2.326  0.00  0.00    -0.316 N 
ATOM      2  C   UNL     1      -0.820   5.051   3.472  0.00  0.00    +0.215 C 
ATOM      3  O   UNL     1      -1.447   4.681   4.442  0.00  0.00    -0.276 OA
ATOM      4  H   UNL     1      -0.304   4.678   1.446  0.00  0.00    +0.149 HD
ENDROOT
BRANCH   1   5
ATOM      5  C   UNL     1      -1.687   3.127   2.253  0.00  0.00    +0.093 C 
BRANCH   5   6
ATOM      6  C   UNL     1      -1.572   2.521   0.853  0.00  0.00    -0.020 C 
BRANCH   6   7
ATOM      7  C   UNL     1      -2.241   1.171   0.834  0.00  0.00    -0.056 A 
ATOM      8  C   UNL     1      -1.678   0.111   1.522  0.00  0.00    +0.002 A 
ATOM      9  C   UNL     1      -2.293  -1.128   1.511  0.00  0.00    +0.004 A 
ATOM     10  C   UNL     1      -3.466  -1.312   0.804  0.00  0.00    +0.045 A 
ATOM     11  C   UNL     1      -4.029  -0.252   0.110  0.00  0.00    +0.120 A 
ATOM     12  C   UNL     1      -3.414   0.991   0.126  0.00  0.00    +0.047 A 
BRANCH  11  13
ATOM     13  O   UNL     1      -5.183  -0.431  -0.587  0.00  0.00    -0.495 OA
ATOM     14  C   UNL     1      -5.761  -1.738  -0.559  0.00  0.00    +0.277 C 
ENDBRANCH  11  13
ENDBRANCH   6   7
BRANCH   6  15
ATOM     15  N   UNL     1      -0.155   2.369   0.499  0.00  0.00    +0.385 N 
ATOM     16  H   UNL     1       0.358   3.311   0.746  0.00  0.00    -0.081 HD
BRANCH  15  18
ATOM     17  C   UNL     1      -0.431   3.377  -1.715  0.00  0.00    -0.017 C 
ATOM     18  C   UNL     1       0.006   2.132  -0.941  0.00  0.00    -0.081 C 
ENDBRANCH  15  18
BRANCH  15  19
ATOM     19  C   UNL     1       0.472   1.296   1.283  0.00  0.00    -0.081 C 
ATOM     20  C   UNL     1       0.374   1.629   2.773  0.00  0.00    -0.017 C 
ENDBRANCH  15  19
ENDBRANCH   6  15
ENDBRANCH   5   6
ENDBRANCH   1   5
BRANCH   2  21
ATOM     21  C   UNL     1       0.018   6.301   3.548  0.00  0.00    +0.117 C 
BRANCH  21  22
ATOM     22  C   UNL     1      -0.097   6.908   4.948  0.00  0.00    +0.135 C 
BRANCH  22  23
ATOM     23  N   UNL     1       0.718   8.123   5.021  0.00  0.00    -0.298 N 
ATOM     24  C   UNL     1       2.014   8.032   5.415  0.00  0.00    +0.203 A 
ATOM     25  N   UNL     1       2.774   9.092   5.489  0.00  0.00    -0.230 NA
ATOM     26  C   UNL     1       2.297  10.297   5.190  0.00  0.00    +0.116 A 
ATOM     27  C   UNL     1       0.969  10.492   4.779  0.00  0.00    +0.076 A 
ATOM     28  C   UNL     1       0.164   9.308   4.703  0.00  0.00    +0.262 A 
ATOM     29  O   UNL     1      -1.002   9.373   4.355  0.00  0.00    -0.267 OA
ATOM     30  C   UNL     1       0.586  11.871   4.483  0.00  0.00    -0.023 A 
ATOM     31  C   UNL     1       1.537  12.817   4.633  0.00  0.00    -0.004 A 
ATOM     32  S   UNL     1       2.979  11.936   5.169  0.00  0.00    -0.073 S 
ATOM     33  C   UNL     1       1.399  14.290   4.396  0.00  0.00    +0.043 C 
ATOM     34  C   UNL     1       0.111  14.532   3.596  0.00  0.00    +0.005 C 
ATOM     35  C   UNL     1      -1.029  13.745   4.249  0.00  0.00    +0.005 C 
ATOM     36  C   UNL     1      -0.821  12.247   4.025  0.00  0.00    +0.037 C 
ENDBRANCH  22  23
ENDBRANCH  21  22
ENDBRANCH   2  21
TORSDOF 10
