REMARK  Name = ZINC13123355
REMARK  7 active torsions:
REMARK  status: ('A' for Active; 'I' for Inactive)
REMARK    1  A    between atoms: C_1  and  O_2
REMARK    2  A    between atoms: O_2  and  C_3
REMARK    3  A    between atoms: C_6  and  C_9
REMARK    4  A    between atoms: C_12  and  C_28
REMARK    5  A    between atoms: C_20  and  C_22
REMARK    6  A    between atoms: C_31  and  O_34
REMARK    7  A    between atoms: O_34  and  C_35
REMARK                            x       y       z     vdW  Elec       q    Type
REMARK                         _______ _______ _______ _____ _____    ______ ____
ROOT
ATOM      1  C   UNL     1      -4.981  -2.629   0.035  0.00  0.00    +0.106 C 
ATOM      2  C   UNL     1      -5.305  -3.100   1.457  0.00  0.00    +0.058 C 
ATOM      3  C   UNL     1      -6.686  -3.767   1.480  0.00  0.00    +0.143 C 
ATOM      4  N   UNL     1      -6.756  -4.744   0.394  0.00  0.00    -0.224 N 
ATOM      5  C   UNL     1      -5.931  -4.752  -0.680  0.00  0.00    +0.216 A 
ATOM      6  N   UNL     1      -6.269  -5.754  -1.446  0.00  0.00    -0.180 NA
ATOM      7  C   UNL     1      -7.304  -6.407  -0.898  0.00  0.00    +0.242 A 
ATOM      8  N   UNL     1      -7.632  -5.818   0.231  0.00  0.00    -0.131 NA
ATOM      9  N   UNL     1      -7.932  -7.532  -1.438  0.00  0.00    -0.249 N 
ATOM     10  C   UNL     1      -7.503  -8.047  -2.607  0.00  0.00    +0.257 C 
ATOM     11  O   UNL     1      -6.567  -7.532  -3.192  0.00  0.00    -0.269 OA
ATOM     12  N   UNL     1      -4.927  -3.806  -0.854  0.00  0.00    -0.307 N 
ATOM     13  H   UNL     1      -8.678  -7.942  -0.972  0.00  0.00    +0.158 HD
ATOM     14  H   UNL     1      -4.229  -3.914  -1.519  0.00  0.00    +0.149 HD
ENDROOT
BRANCH   1  18
ATOM     15  C   UNL     1      -1.200  -0.637   0.010  0.00  0.00    +0.120 A 
ATOM     16  C   UNL     1      -2.375   0.101   0.019  0.00  0.00    +0.046 A 
ATOM     17  C   UNL     1      -3.596  -0.545   0.027  0.00  0.00    +0.009 A 
ATOM     18  C   UNL     1      -3.648  -1.927   0.026  0.00  0.00    -0.027 A 
ATOM     19  C   UNL     1      -2.479  -2.665   0.017  0.00  0.00    +0.009 A 
ATOM     20  C   UNL     1      -1.255  -2.024   0.003  0.00  0.00    +0.046 A 
BRANCH  15  22
ATOM     21  C   UNL     1      -0.017   1.425   0.010  0.00  0.00    +0.277 C 
ATOM     22  O   UNL     1       0.002  -0.004   0.002  0.00  0.00    -0.495 OA
ENDBRANCH  15  22
ENDBRANCH   1  18
BRANCH   3  23
ATOM     23  C   UNL     1      -6.890  -4.462   2.802  0.00  0.00    -0.023 A 
ATOM     24  C   UNL     1      -6.024  -5.465   3.194  0.00  0.00    +0.009 A 
ATOM     25  C   UNL     1      -6.209  -6.104   4.405  0.00  0.00    +0.046 A 
ATOM     26  C   UNL     1      -7.264  -5.738   5.228  0.00  0.00    +0.120 A 
ATOM     27  C   UNL     1      -8.131  -4.730   4.831  0.00  0.00    +0.046 A 
ATOM     28  C   UNL     1      -7.939  -4.091   3.622  0.00  0.00    +0.009 A 
BRANCH  26  29
ATOM     29  O   UNL     1      -7.448  -6.365   6.419  0.00  0.00    -0.495 OA
ATOM     30  C   UNL     1      -8.555  -5.936   7.214  0.00  0.00    +0.277 C 
ENDBRANCH  26  29
ENDBRANCH   3  23
BRANCH  10  31
ATOM     31  C   UNL     1      -8.162  -9.227  -3.174  0.00  0.00    +0.074 A 
ATOM     32  C   UNL     1      -7.875  -9.909  -4.347  0.00  0.00    +0.021 A 
ATOM     33  C   UNL     1      -8.677 -10.992  -4.619  0.00  0.00    +0.008 A 
ATOM     34  C   UNL     1      -9.665 -11.314  -3.749  0.00  0.00    +0.046 A 
ATOM     35  S   UNL     1      -9.535 -10.164  -2.532  0.00  0.00    -0.092 S 
ENDBRANCH  10  31
TORSDOF 5
