REMARK  Name = ZINC21236587
REMARK  4 active torsions:
REMARK  status: ('A' for Active; 'I' for Inactive)
REMARK    1  A    between atoms: C_1  and  C_2
REMARK    2  A    between atoms: C_5  and  C_8
REMARK    3  A    between atoms: C_13  and  C_19
REMARK    4  A    between atoms: C_23  and  O_25
REMARK                            x       y       z     vdW  Elec       q    Type
REMARK                         _______ _______ _______ _____ _____    ______ ____
ROOT
ATOM      1  C   UNL     1      -2.514   0.980   0.019  0.00  0.00    +0.032 C 
ATOM      2  C   UNL     1      -3.330   1.343  -1.223  0.00  0.00    +0.059 C 
ATOM      3  C   UNL     1      -4.647   0.609  -1.196  0.00  0.00    +0.018 C 
ATOM      4  C   UNL     1      -5.242   0.298  -0.025  0.00  0.00    +0.020 C 
ATOM      5  C   UNL     1      -6.564  -0.433  -0.022  0.00  0.00    +0.063 C 
ATOM      6  C   UNL     1      -7.400   0.024  -1.218  0.00  0.00    +0.109 C 
ATOM      7  C   UNL     1      -6.547  -0.015  -2.460  0.00  0.00    +0.218 C 
ATOM      8  O   UNL     1      -7.047  -0.298  -3.529  0.00  0.00    -0.275 OA
ATOM      9  N   UNL     1      -5.234   0.262  -2.387  0.00  0.00    -0.289 N 
ATOM     10  C   UNL     1      -4.655   0.637   1.206  0.00  0.00    +0.162 C 
ATOM     11  O   UNL     1      -5.227   0.352   2.239  0.00  0.00    -0.292 OA
ATOM     12  C   UNL     1      -3.329   1.346   1.264  0.00  0.00    +0.088 C 
ATOM     13  H   UNL     1      -4.627   0.206  -3.303  0.00  0.00    +0.155 HD
ENDROOT
BRANCH   1  18
ATOM     14  C   UNL     1       2.451   3.937  -0.001  0.00  0.00    +0.044 C 
ATOM     15  C   UNL     1       1.156   3.165   0.008  0.00  0.00    -0.050 A 
ATOM     16  C   UNL     1       1.175   1.783   0.000  0.00  0.00    +0.003 A 
ATOM     17  C   UNL     1      -0.013   1.076   0.008  0.00  0.00    +0.004 A 
ATOM     18  C   UNL     1      -1.219   1.751   0.017  0.00  0.00    -0.043 A 
ATOM     19  C   UNL     1      -1.238   3.133   0.030  0.00  0.00    +0.004 A 
ATOM     20  C   UNL     1      -0.050   3.840   0.022  0.00  0.00    +0.003 A 
ENDBRANCH   1  18
BRANCH   5  21
ATOM     21  C   UNL     1      -6.317  -1.917  -0.119  0.00  0.00    -0.036 A 
ATOM     22  C   UNL     1      -5.649  -2.437  -1.212  0.00  0.00    +0.004 A 
ATOM     23  C   UNL     1      -5.421  -3.797  -1.304  0.00  0.00    +0.004 A 
ATOM     24  C   UNL     1      -5.862  -4.641  -0.303  0.00  0.00    +0.045 A 
ATOM     25  C   UNL     1      -6.532  -4.123   0.795  0.00  0.00    +0.117 A 
ATOM     26  C   UNL     1      -6.755  -2.756   0.887  0.00  0.00    +0.049 A 
BRANCH  25  27
ATOM     27  O   UNL     1      -6.966  -4.951   1.781  0.00  0.00    -0.507 OA
ATOM     28  H   UNL     1      -7.498  -4.539   2.652  0.00  0.00    +0.292 HD
ENDBRANCH  25  27
ENDBRANCH   5  21
TORSDOF 3
