REMARK  Name = ZINC39237624
REMARK  4 active torsions:
REMARK  status: ('A' for Active; 'I' for Inactive)
REMARK    1  A    between atoms: C_1  and  C_2
REMARK    2  A    between atoms: C_4  and  C_31
REMARK    3  A    between atoms: C_16  and  C_19
REMARK    4  A    between atoms: C_24  and  C_25
REMARK                            x       y       z     vdW  Elec       q    Type
REMARK                         _______ _______ _______ _____ _____    ______ ____
ROOT
ATOM      1  C   UNL     1      -0.778   1.582  -0.671  0.00  0.00    +0.044 C 
ATOM      2  C   UNL     1      -0.797   0.077  -0.741  0.00  0.00    -0.041 A 
ATOM      3  C   UNL     1      -1.046  -0.565  -1.942  0.00  0.00    +0.036 A 
ATOM      4  C   UNL     1      -1.059  -1.944  -1.996  0.00  0.00    +0.145 A 
ATOM      5  N   UNL     1      -0.819  -2.650  -0.906  0.00  0.00    -0.236 NA
ATOM      6  C   UNL     1      -0.570  -2.072   0.252  0.00  0.00    +0.103 A 
ATOM      7  C   UNL     1      -0.558  -0.685   0.404  0.00  0.00    +0.006 A 
ATOM      8  C   UNL     1      -0.322  -0.169   1.808  0.00  0.00    +0.110 C 
ATOM      9  C   UNL     1       0.406  -1.214   2.660  0.00  0.00    +0.160 C 
ATOM     10  S   UNL     1      -0.178  -2.751   1.852  0.00  0.00    -0.091 S 
ATOM     11  C   UNL     1       0.033  -1.179   4.099  0.00  0.00    +0.229 C 
ATOM     12  O   UNL     1       0.580  -1.957   4.851  0.00  0.00    -0.274 OA
ATOM     13  N   UNL     1      -0.874  -0.339   4.609  0.00  0.00    -0.298 N 
ATOM     14  C   UNL     1      -1.558   0.643   3.782  0.00  0.00    +0.156 C 
ATOM     15  N   UNL     1      -1.601   0.218   2.382  0.00  0.00    -0.289 NA
ATOM     16  H   UNL     1      -1.081  -0.387   5.556  0.00  0.00    +0.150 HD
ATOM     17  H   UNL     1      -2.050   0.924   1.819  0.00  0.00    +0.124 HD
ENDROOT
BRANCH  14  18
ATOM     18  C   UNL     1      -2.994   0.803   4.284  0.00  0.00    +0.118 C 
ATOM     19  C   UNL     1      -3.781  -0.473   4.066  0.00  0.00    +0.120 C 
ATOM     20  N   UNL     1      -4.751  -0.165   3.268  0.00  0.00    -0.161 NA
ATOM     21  N   UNL     1      -4.734   1.177   2.902  0.00  0.00    -0.153 NA
ATOM     22  C   UNL     1      -3.740   1.827   3.450  0.00  0.00    +0.082 C 
BRANCH  22  23
ATOM     23  C   UNL     1      -3.413   3.253   3.293  0.00  0.00    -0.001 A 
ATOM     24  C   UNL     1      -4.121   4.040   2.380  0.00  0.00    +0.010 A 
ATOM     25  C   UNL     1      -3.808   5.376   2.239  0.00  0.00    +0.001 A 
ATOM     26  C   UNL     1      -2.795   5.937   2.996  0.00  0.00    +0.000 A 
ATOM     27  C   UNL     1      -2.089   5.164   3.901  0.00  0.00    +0.001 A 
ATOM     28  C   UNL     1      -2.394   3.829   4.059  0.00  0.00    +0.010 A 
ENDBRANCH  22  23
ENDBRANCH  14  18
BRANCH   4  29
ATOM     29  C   UNL     1      -1.347  -2.644  -3.299  0.00  0.00    +0.434 C 
ATOM     30  F   UNL     1      -0.148  -2.861  -3.986  0.00  0.00    -0.164 F 
ATOM     31  F   UNL     1      -1.967  -3.871  -3.042  0.00  0.00    -0.164 F 
ATOM     32  F   UNL     1      -2.194  -1.848  -4.078  0.00  0.00    -0.164 F 
ENDBRANCH   4  29
TORSDOF 3
