REMARK  Name = ZINC21615592
REMARK  7 active torsions:
REMARK  status: ('A' for Active; 'I' for Inactive)
REMARK    1  A    between atoms: C_1  and  C_2
REMARK    2  A    between atoms: C_5  and  N_21
REMARK    3  A    between atoms: C_6  and  O_8
REMARK    4  A    between atoms: O_8  and  C_9
REMARK    5  A    between atoms: C_9  and  C_10
REMARK    6  A    between atoms: N_12  and  C_13
REMARK    7  A    between atoms: C_18  and  C_19
REMARK                            x       y       z     vdW  Elec       q    Type
REMARK                         _______ _______ _______ _____ _____    ______ ____
ROOT
ATOM      1  C   UNL     1       0.031  -2.005   3.563  0.00  0.00    +0.325 C 
ENDROOT
BRANCH   1   2
ATOM      2  C   UNL     1       0.060  -2.932   4.751  0.00  0.00    +0.255 C 
ATOM      3  O   UNL     1       0.082  -4.133   4.583  0.00  0.00    -0.272 OA
ATOM      4  N   UNL     1       0.062  -2.425   6.000  0.00  0.00    -0.282 N 
ATOM      5  H   UNL     1       0.126  -1.467   6.135  0.00  0.00    +0.155 HD
BRANCH   4   6
ATOM      6  C   UNL     1      -0.027  -3.283   7.103  0.00  0.00    +0.036 A 
ATOM      7  C   UNL     1      -0.617  -4.532   6.966  0.00  0.00    +0.024 A 
ATOM      8  C   UNL     1      -0.704  -5.376   8.056  0.00  0.00    +0.017 A 
ATOM      9  C   UNL     1      -0.203  -4.978   9.283  0.00  0.00    +0.018 A 
ATOM     10  C   UNL     1       0.385  -3.733   9.422  0.00  0.00    +0.020 A 
ATOM     11  C   UNL     1       0.479  -2.887   8.334  0.00  0.00    -0.028 A 
ATOM     12  C   UNL     1       1.126  -1.534   8.484  0.00  0.00    +0.046 C 
ATOM     13 BR   UNL     1      -0.325  -6.136  10.773  0.00  0.00    -0.050 Br
ENDBRANCH   4   6
ENDBRANCH   1   2
BRANCH   1  14
ATOM     14  O   UNL     1       0.034  -2.775   2.358  0.00  0.00    -0.480 OA
BRANCH  14  20
ATOM     15  C   UNL     1      -0.074   1.503   0.012  0.00  0.00    +0.044 C 
ATOM     16  C   UNL     1      -0.044  -0.004   0.003  0.00  0.00    -0.047 A 
ATOM     17  C   UNL     1      -0.042  -0.688  -1.199  0.00  0.00    +0.006 A 
ATOM     18  C   UNL     1      -0.014  -2.070  -1.210  0.00  0.00    +0.037 A 
ATOM     19  C   UNL     1       0.011  -2.771  -0.020  0.00  0.00    +0.168 A 
ATOM     20  C   UNL     1       0.009  -2.087   1.187  0.00  0.00    +0.152 A 
ATOM     21  C   UNL     1      -0.013  -0.700   1.195  0.00  0.00    +0.051 A 
BRANCH  19  22
ATOM     22  N   UNL     1       0.040  -4.251  -0.033  0.00  0.00    +0.060 N 
ATOM     23  O   UNL     1       0.041  -4.846  -1.085  0.00  0.00    -0.126 OA
ATOM     24  O   UNL     1       0.062  -4.864   1.009  0.00  0.00    -0.126 OA
ENDBRANCH  19  22
ENDBRANCH  14  20
ENDBRANCH   1  14
TORSDOF 5
