REMARK  Name = ZINC63437380
REMARK  8 active torsions:
REMARK  status: ('A' for Active; 'I' for Inactive)
REMARK    1  A    between atoms: C_1  and  O_2
REMARK    2  A    between atoms: O_2  and  C_3
REMARK    3  A    between atoms: C_3  and  C_4
REMARK    4  A    between atoms: N_6  and  C_7
REMARK    5  A    between atoms: C_7  and  C_8
REMARK    6  A    between atoms: C_8  and  S_9
REMARK    7  A    between atoms: S_9  and  C_10
REMARK    8  A    between atoms: C_18  and  C_20
REMARK                            x       y       z     vdW  Elec       q    Type
REMARK                         _______ _______ _______ _____ _____    ______ ____
ROOT
ATOM      1  C   UNL     1      -4.901  -7.337   0.150  0.00  0.00    +0.021 C 
ATOM      2  C   UNL     1      -6.064  -6.573   0.157  0.00  0.00    +0.010 A 
ATOM      3  C   UNL     1      -6.291  -5.183   0.047  0.00  0.00    +0.011 A 
ATOM      4  C   UNL     1      -7.561  -4.704   0.086  0.00  0.00    +0.001 A 
ATOM      5  C   UNL     1      -8.658  -5.553   0.235  0.00  0.00    +0.002 A 
ATOM      6  C   UNL     1      -8.513  -6.897   0.347  0.00  0.00    +0.026 A 
ATOM      7  C   UNL     1      -7.217  -7.471   0.314  0.00  0.00    +0.044 A 
ATOM      8  N   UNL     1      -6.816  -8.726   0.401  0.00  0.00    -0.373 N 
ATOM      9  C   UNL     1      -5.354  -8.772   0.303  0.00  0.00    +0.147 C 
ATOM     10  H   UNL     1      -7.397  -9.496   0.508  0.00  0.00    +0.161 HD
ENDROOT
BRANCH   9  11
ATOM     11  C   UNL     1      -4.771  -9.369   1.558  0.00  0.00    -0.020 A 
ATOM     12  C   UNL     1      -5.354  -9.105   2.784  0.00  0.00    +0.007 A 
ATOM     13  C   UNL     1      -4.820  -9.652   3.935  0.00  0.00    +0.020 A 
ATOM     14  C   UNL     1      -3.703 -10.464   3.861  0.00  0.00    +0.041 A 
ATOM     15  C   UNL     1      -3.120 -10.728   2.635  0.00  0.00    +0.020 A 
ATOM     16  C   UNL     1      -3.658 -10.185   1.483  0.00  0.00    +0.007 A 
ATOM     17 CL   UNL     1      -3.031 -11.151   5.307  0.00  0.00    -0.084 Cl
ENDBRANCH   9  11
BRANCH   1  18
ATOM     18  S   UNL     1      -3.342  -6.789  -0.003  0.00  0.00    -0.125 S 
BRANCH  18  19
ATOM     19  C   UNL     1      -3.509  -4.982   0.009  0.00  0.00    +0.093 C 
BRANCH  19  20
ATOM     20  C   UNL     1      -2.119  -4.342   0.018  0.00  0.00    +0.115 C 
BRANCH  20  23
ATOM     21  C   UNL     1      -1.154  -2.105   0.036  0.00  0.00    +0.239 C 
ATOM     22  O   UNL     1      -0.052  -2.612   0.037  0.00  0.00    -0.273 OA
ATOM     23  N   UNL     1      -2.254  -2.883   0.027  0.00  0.00    -0.313 N 
ATOM     24  H   UNL     1      -3.135  -2.477   0.026  0.00  0.00    +0.149 HD
BRANCH  21  25
ATOM     25  C   UNL     1      -1.292  -0.604   0.045  0.00  0.00    +0.255 C 
BRANCH  25  27
ATOM     26  C   UNL     1      -0.013   1.423   0.064  0.00  0.00    +0.194 C 
ATOM     27  O   UNL     1       0.005  -0.006   0.054  0.00  0.00    -0.374 OA
ENDBRANCH  25  27
ENDBRANCH  21  25
ENDBRANCH  20  23
ENDBRANCH  19  20
ENDBRANCH  18  19
ENDBRANCH   1  18
TORSDOF 7
