REMARK  Name = ZINC50529679
REMARK  3 active torsions:
REMARK  status: ('A' for Active; 'I' for Inactive)
REMARK    1  A    between atoms: C_1  and  N_2
REMARK    2  A    between atoms: N_2  and  C_3
REMARK    3  A    between atoms: C_3  and  C_4
REMARK                            x       y       z     vdW  Elec       q    Type
REMARK                         _______ _______ _______ _____ _____    ______ ____
ROOT
ATOM      1  C   UNL     1       0.033   1.619   0.422  0.00  0.00    +0.131 C 
ATOM      2  N   UNL     1       0.020   0.185   0.122  0.00  0.00    -0.312 N 
ATOM      3  C   UNL     1      -0.114  -0.248  -1.188  0.00  0.00    +0.152 A 
ATOM      4  C   UNL     1       1.027  -0.575  -1.957  0.00  0.00    +0.027 A 
ATOM      5  C   UNL     1       2.329  -0.485  -1.456  0.00  0.00    +0.012 A 
ATOM      6  C   UNL     1       3.380  -0.818  -2.259  0.00  0.00    +0.001 A 
ATOM      7  C   UNL     1       3.176  -1.246  -3.569  0.00  0.00    +0.001 A 
ATOM      8  C   UNL     1       1.919  -1.344  -4.089  0.00  0.00    +0.011 A 
ATOM      9  C   UNL     1       0.818  -1.011  -3.291  0.00  0.00    +0.024 A 
ATOM     10  C   UNL     1      -0.510  -1.087  -3.756  0.00  0.00    +0.159 A 
ATOM     11  N   UNL     1      -1.490  -0.756  -2.945  0.00  0.00    -0.135 NA
ATOM     12  N   UNL     1      -1.308  -0.367  -1.738  0.00  0.00    -0.132 NA
ATOM     13 CL   UNL     1      -0.847  -1.611  -5.376  0.00  0.00    -0.059 Cl
ENDROOT
BRANCH   2  14
ATOM     14  C   UNL     1       0.147  -0.792   1.207  0.00  0.00    +0.142 C 
BRANCH  14  15
ATOM     15  C   UNL     1      -1.224  -1.228   1.654  0.00  0.00    -0.016 A 
ATOM     16  C   UNL     1      -1.825  -0.615   2.737  0.00  0.00    +0.006 A 
ATOM     17  C   UNL     1      -3.083  -1.015   3.147  0.00  0.00    +0.000 A 
ATOM     18  C   UNL     1      -3.741  -2.028   2.474  0.00  0.00    +0.001 A 
ATOM     19  C   UNL     1      -3.141  -2.641   1.391  0.00  0.00    +0.015 A 
ATOM     20  C   UNL     1      -1.884  -2.238   0.977  0.00  0.00    +0.023 A 
ATOM     21 BR   UNL     1      -1.064  -3.072  -0.509  0.00  0.00    -0.050 Br
ENDBRANCH  14  15
ENDBRANCH   2  14
TORSDOF 2
