REMARK  Name = ZINC64173363
REMARK  9 active torsions:
REMARK  status: ('A' for Active; 'I' for Inactive)
REMARK    1  A    between atoms: C_1  and  C_2
REMARK    2  A    between atoms: C_4  and  C_33
REMARK    3  A    between atoms: C_5  and  C_9
REMARK    4  A    between atoms: C_7  and  C_8
REMARK    5  A    between atoms: C_15  and  C_17
REMARK    6  A    between atoms: C_17  and  C_19
REMARK    7  A    between atoms: C_17  and  N_29
REMARK    8  A    between atoms: C_19  and  C_20
REMARK    9  A    between atoms: C_30  and  C_32
REMARK                            x       y       z     vdW  Elec       q    Type
REMARK                         _______ _______ _______ _____ _____    ______ ____
ROOT
ATOM      1  C   UNL     1       0.245  -4.210  -0.466  0.00  0.00    +0.080 A 
ATOM      2  C   UNL     1       0.305  -5.078   0.588  0.00  0.00    +0.076 A 
ATOM      3  S   UNL     1       0.434  -6.639  -0.275  0.00  0.00    -0.060 S 
ATOM      4  C   UNL     1       0.395  -5.979  -1.935  0.00  0.00    +0.165 A 
ATOM      5  N   UNL     1       0.287  -4.685  -1.702  0.00  0.00    -0.225 NA
ATOM      6  N   UNL     1       0.457  -6.651  -3.150  0.00  0.00    -0.263 N 
ATOM      7  C   UNL     1       0.562  -7.995  -3.172  0.00  0.00    +0.239 C 
ATOM      8  O   UNL     1       0.602  -8.617  -2.132  0.00  0.00    -0.273 OA
ATOM      9  H   UNL     1       0.425  -6.154  -3.982  0.00  0.00    +0.157 HD
ENDROOT
BRANCH   1  14
ATOM     10  C   UNL     1      -0.205   1.457   0.458  0.00  0.00    +0.044 C 
ATOM     11  C   UNL     1      -0.087  -0.026   0.216  0.00  0.00    -0.047 A 
ATOM     12  C   UNL     1      -0.924  -0.645  -0.695  0.00  0.00    +0.007 A 
ATOM     13  C   UNL     1      -0.821  -2.002  -0.921  0.00  0.00    -0.041 A 
ATOM     14  C   UNL     1       0.130  -2.750  -0.228  0.00  0.00    +0.004 A 
ATOM     15  C   UNL     1       0.971  -2.122   0.688  0.00  0.00    +0.014 A 
ATOM     16  C   UNL     1       0.862  -0.763   0.901  0.00  0.00    -0.047 A 
ATOM     17  C   UNL     1       1.775  -0.081   1.887  0.00  0.00    +0.044 C 
ATOM     18  C   UNL     1      -1.734  -2.674  -1.913  0.00  0.00    +0.044 C 
ENDBRANCH   1  14
BRANCH   7  19
ATOM     19  C   UNL     1       0.629  -8.724  -4.489  0.00  0.00    +0.163 C 
BRANCH  19  20
ATOM     20  N   UNL     1       0.263 -10.128  -4.289  0.00  0.00    -0.304 N 
ATOM     21  C   UNL     1       0.984 -10.900  -3.453  0.00  0.00    +0.211 C 
ATOM     22  O   UNL     1       1.936 -10.432  -2.865  0.00  0.00    -0.276 OA
ATOM     23  C   UNL     1       0.607 -12.345  -3.247  0.00  0.00    +0.109 C 
ATOM     24  H   UNL     1      -0.499 -10.502  -4.759  0.00  0.00    +0.149 HD
ENDBRANCH  19  20
BRANCH  19  25
ATOM     25  C   UNL     1       2.052  -8.642  -5.045  0.00  0.00    +0.065 C 
BRANCH  25  26
ATOM     26  C   UNL     1       2.091  -9.264  -6.418  0.00  0.00    -0.039 C 
ATOM     27  C   UNL     1       1.983  -8.623  -7.604  0.00  0.00    -0.001 A 
ATOM     28  C   UNL     1       1.802  -7.210  -7.958  0.00  0.00    +0.010 A 
ATOM     29  C   UNL     1       1.726  -6.865  -9.264  0.00  0.00    +0.001 A 
ATOM     30  C   UNL     1       1.815  -7.822 -10.285  0.00  0.00    +0.002 A 
ATOM     31  C   UNL     1       1.982  -9.138 -10.038  0.00  0.00    +0.026 A 
ATOM     32  C   UNL     1       2.075  -9.613  -8.701  0.00  0.00    +0.043 A 
ATOM     33  N   UNL     1       2.233 -10.819  -8.211  0.00  0.00    -0.380 N 
ATOM     34  C   UNL     1       2.266 -10.729  -6.747  0.00  0.00    +0.144 C 
ATOM     35  H   UNL     1       2.318 -11.634  -8.731  0.00  0.00    +0.160 HD
ENDBRANCH  25  26
ENDBRANCH  19  25
ENDBRANCH   7  19
TORSDOF 5
