REMARK  Name = ZINC08845160
REMARK  12 active torsions:
REMARK  status: ('A' for Active; 'I' for Inactive)
REMARK    1  A    between atoms: C_1  and  C_2
REMARK    2  A    between atoms: C_4  and  C_34
REMARK    3  A    between atoms: C_5  and  O_33
REMARK    4  A    between atoms: C_6  and  C_8
REMARK    5  A    between atoms: N_16  and  C_29
REMARK    6  A    between atoms: C_17  and  C_19
REMARK    7  A    between atoms: C_21  and  O_27
REMARK    8  A    between atoms: C_22  and  O_26
REMARK    9  A    between atoms: O_27  and  C_28
REMARK   10  A    between atoms: C_29  and  C_30
REMARK   11  A    between atoms: C_30  and  C_31
REMARK   12  A    between atoms: C_31  and  O_32
REMARK                            x       y       z     vdW  Elec       q    Type
REMARK                         _______ _______ _______ _____ _____    ______ ____
ROOT
ATOM      1  C   UNL     1      -0.163  -2.889   2.622  0.00  0.00    +0.075 A 
ATOM      2  C   UNL     1       0.889  -3.570   3.146  0.00  0.00    +0.035 A 
ATOM      3  C   UNL     1       0.457  -4.043   4.406  0.00  0.00    +0.153 A 
ATOM      4  N   UNL     1      -0.786  -3.635   4.564  0.00  0.00    -0.168 NA
ATOM      5  N   UNL     1      -1.170  -2.955   3.543  0.00  0.00    -0.276 N 
ATOM      6  H   UNL     1      -2.046  -2.552   3.439  0.00  0.00    +0.189 HD
ATOM      7  C   UNL     1       1.572  -4.791   5.015  0.00  0.00    +0.268 C 
ATOM      8  O   UNL     1       1.532  -5.332   6.103  0.00  0.00    -0.268 OA
ATOM      9  N   UNL     1       2.638  -4.793   4.197  0.00  0.00    -0.285 N 
ATOM     10  C   UNL     1       2.307  -4.043   2.980  0.00  0.00    +0.141 C 
ENDROOT
BRANCH   1  16
ATOM     11  C   UNL     1      -2.021  -2.516  -1.993  0.00  0.00    +0.044 C 
ATOM     12  C   UNL     1      -1.098  -2.019  -0.911  0.00  0.00    -0.049 A 
ATOM     13  C   UNL     1      -0.290  -0.920  -1.144  0.00  0.00    +0.010 A 
ATOM     14  C   UNL     1       0.560  -0.456  -0.158  0.00  0.00    -0.008 A 
ATOM     15  C   UNL     1       0.608  -1.091   1.073  0.00  0.00    +0.129 A 
ATOM     16  C   UNL     1      -0.207  -2.204   1.312  0.00  0.00    +0.042 A 
ATOM     17  C   UNL     1      -1.065  -2.659   0.311  0.00  0.00    +0.017 A 
ATOM     18  C   UNL     1       1.436   0.741  -0.421  0.00  0.00    +0.047 C 
BRANCH  15  19
ATOM     19  O   UNL     1       1.443  -0.637   2.042  0.00  0.00    -0.506 OA
ATOM     20  H   UNL     1       1.051   0.037   2.615  0.00  0.00    +0.292 HD
ENDBRANCH  15  19
ENDBRANCH   1  16
BRANCH  10  21
ATOM     21  C   UNL     1       2.415  -4.939   1.773  0.00  0.00    -0.018 A 
ATOM     22  C   UNL     1       3.079  -4.498   0.643  0.00  0.00    +0.055 A 
ATOM     23  C   UNL     1       3.179  -5.321  -0.467  0.00  0.00    +0.163 A 
ATOM     24  C   UNL     1       2.612  -6.591  -0.442  0.00  0.00    +0.173 A 
ATOM     25  C   UNL     1       1.949  -7.028   0.694  0.00  0.00    +0.063 A 
ATOM     26  C   UNL     1       1.856  -6.203   1.801  0.00  0.00    +0.025 A 
ATOM     27 BR   UNL     1       1.176  -8.753   0.733  0.00  0.00    -0.046 Br
BRANCH  24  28
ATOM     28  O   UNL     1       2.708  -7.402  -1.530  0.00  0.00    -0.503 OA
ATOM     29  H   UNL     1       3.492  -7.968  -1.531  0.00  0.00    +0.292 HD
ENDBRANCH  24  28
BRANCH  23  30
ATOM     30  O   UNL     1       3.831  -4.887  -1.580  0.00  0.00    -0.491 OA
ATOM     31  C   UNL     1       4.388  -3.572  -1.534  0.00  0.00    +0.277 C 
ENDBRANCH  23  30
ENDBRANCH  10  21
BRANCH   9  32
ATOM     32  C   UNL     1       3.924  -5.439   4.475  0.00  0.00    +0.111 C 
BRANCH  32  33
ATOM     33  C   UNL     1       3.895  -6.877   3.954  0.00  0.00    +0.047 C 
BRANCH  33  34
ATOM     34  C   UNL     1       5.237  -7.552   4.244  0.00  0.00    +0.157 C 
BRANCH  34  35
ATOM     35  O   UNL     1       5.211  -8.895   3.757  0.00  0.00    -0.395 OA
ATOM     36  H   UNL     1       6.031  -9.384   3.907  0.00  0.00    +0.209 HD
ENDBRANCH  34  35
ENDBRANCH  33  34
ENDBRANCH  32  33
ENDBRANCH   9  32
TORSDOF 9
