REMARK  Name = ZINC09587345
REMARK  11 active torsions:
REMARK  status: ('A' for Active; 'I' for Inactive)
REMARK    1  A    between atoms: C_1  and  C_2
REMARK    2  A    between atoms: C_2  and  O_3
REMARK    3  A    between atoms: O_3  and  C_4
REMARK    4  A    between atoms: C_7  and  S_10
REMARK    5  A    between atoms: S_10  and  N_13
REMARK    6  A    between atoms: C_16  and  C_19
REMARK    7  A    between atoms: N_21  and  C_22
REMARK    8  A    between atoms: C_22  and  C_23
REMARK    9  A    between atoms: C_23  and  C_24
REMARK   10  A    between atoms: C_27  and  S_30
REMARK   11  A    between atoms: S_30  and  N_33
REMARK                            x       y       z     vdW  Elec       q    Type
REMARK                         _______ _______ _______ _____ _____    ______ ____
ROOT
ATOM      1  N   UNL     1      -0.207  -6.790  -2.721  0.00  0.00    -0.177 NA
ATOM      2  C   UNL     1      -1.432  -7.189  -2.015  0.00  0.00    +0.110 C 
ATOM      3  C   UNL     1      -1.841  -8.587  -2.489  0.00  0.00    +0.030 C 
ATOM      4  C   UNL     1      -1.966  -8.587  -4.015  0.00  0.00    +0.077 C 
ATOM      5  C   UNL     1      -0.613  -8.242  -4.639  0.00  0.00    +0.030 C 
ATOM      6  C   UNL     1      -0.191  -6.835  -4.189  0.00  0.00    +0.110 C 
ENDROOT
BRANCH   4   7
ATOM      7  C   UNL     1      -2.402  -9.952  -4.482  0.00  0.00    +0.216 C 
ATOM      8  O   UNL     1      -2.593 -10.837  -3.676  0.00  0.00    -0.276 OA
ATOM      9  N   UNL     1      -2.579 -10.189  -5.798  0.00  0.00    -0.315 N 
ATOM     10  H   UNL     1      -2.426  -9.481  -6.443  0.00  0.00    +0.149 HD
BRANCH   9  11
ATOM     11  C   UNL     1      -3.002 -11.515  -6.252  0.00  0.00    +0.109 C 
BRANCH  11  12
ATOM     12  C   UNL     1      -3.128 -11.516  -7.777  0.00  0.00    +0.054 C 
BRANCH  12  13
ATOM     13  C   UNL     1      -3.563 -12.880  -8.245  0.00  0.00    -0.046 A 
ATOM     14  C   UNL     1      -2.618 -13.842  -8.548  0.00  0.00    +0.005 A 
ATOM     15  C   UNL     1      -3.017 -15.093  -8.978  0.00  0.00    +0.029 A 
ATOM     16  C   UNL     1      -4.363 -15.384  -9.103  0.00  0.00    +0.105 A 
ATOM     17  C   UNL     1      -5.309 -14.423  -8.799  0.00  0.00    +0.029 A 
ATOM     18  C   UNL     1      -4.909 -13.173  -8.366  0.00  0.00    +0.005 A 
BRANCH  16  19
ATOM     19  S   UNL     1      -4.872 -16.979  -9.651  0.00  0.00    +0.056 S 
ATOM     20  O   UNL     1      -6.171 -16.822 -10.206  0.00  0.00    -0.153 OA
ATOM     21  O   UNL     1      -3.787 -17.520 -10.393  0.00  0.00    -0.153 OA
BRANCH  19  22
ATOM     22  N   UNL     1      -5.044 -17.928  -8.305  0.00  0.00    -0.204 NA
ATOM     23  H   UNL     1      -4.867 -17.558  -7.426  0.00  0.00    +0.144 HD
ATOM     24  H   UNL     1      -5.322 -18.853  -8.396  0.00  0.00    +0.144 HD
ENDBRANCH  19  22
ENDBRANCH  16  19
ENDBRANCH  12  13
ENDBRANCH  11  12
ENDBRANCH   9  11
ENDBRANCH   4   7
BRANCH   1  25
ATOM     25  S   UNL     1       1.129  -6.292  -1.878  0.00  0.00    +0.061 S 
ATOM     26  O   UNL     1       2.249  -6.512  -2.724  0.00  0.00    -0.153 OA
ATOM     27  O   UNL     1       1.029  -6.867  -0.582  0.00  0.00    -0.153 OA
BRANCH  25  31
ATOM     28  C   UNL     1       0.777  -1.810  -1.336  0.00  0.00    +0.121 A 
ATOM     29  C   UNL     1       0.243  -2.669  -0.386  0.00  0.00    +0.047 A 
ATOM     30  C   UNL     1       0.351  -4.036  -0.554  0.00  0.00    +0.032 A 
ATOM     31  C   UNL     1       0.992  -4.548  -1.667  0.00  0.00    +0.106 A 
ATOM     32  C   UNL     1       1.525  -3.694  -2.615  0.00  0.00    +0.032 A 
ATOM     33  C   UNL     1       1.414  -2.327  -2.455  0.00  0.00    +0.047 A 
BRANCH  28  34
ATOM     34  O   UNL     1       0.671  -0.465  -1.174  0.00  0.00    -0.492 OA
BRANCH  34  36
ATOM     35  C   UNL     1      -0.019   1.526   0.010  0.00  0.00    +0.048 C 
ATOM     36  C   UNL     1       0.002  -0.004   0.002  0.00  0.00    +0.225 C 
ENDBRANCH  34  36
ENDBRANCH  28  34
ENDBRANCH  25  31
ENDBRANCH   1  25
TORSDOF 10
