REMARK  Name = ZINC41584954
REMARK  7 active torsions:
REMARK  status: ('A' for Active; 'I' for Inactive)
REMARK    1  A    between atoms: C_4  and  C_7
REMARK    2  A    between atoms: C_7  and  N_8
REMARK    3  A    between atoms: N_11  and  C_14
REMARK    4  A    between atoms: C_14  and  C_15
REMARK    5  A    between atoms: C_16  and  O_37
REMARK    6  A    between atoms: C_24  and  C_26
REMARK    7  A    between atoms: C_28  and  C_31
REMARK                            x       y       z     vdW  Elec       q    Type
REMARK                         _______ _______ _______ _____ _____    ______ ____
ROOT
ATOM      1  C   UNL     1       7.926  -1.641   4.759  0.00  0.00    +0.051 A 
ATOM      2  C   UNL     1       8.033  -3.022   4.741  0.00  0.00    +0.125 A 
ATOM      3  C   UNL     1       9.284  -3.633   4.686  0.00  0.00    +0.046 A 
ATOM      4  C   UNL     1      10.422  -2.880   4.664  0.00  0.00    +0.015 A 
ATOM      5  C   UNL     1      10.335  -1.481   4.707  0.00  0.00    +0.019 A 
ATOM      6  C   UNL     1       9.070  -0.861   4.724  0.00  0.00    +0.147 A 
ATOM      7  O   UNL     1       8.976   0.491   4.690  0.00  0.00    -0.421 OA
ATOM      8  C   UNL     1      10.020   1.189   5.194  0.00  0.00    +0.347 A 
ATOM      9  O   UNL     1       9.844   2.208   5.837  0.00  0.00    -0.244 OA
ATOM     10  C   UNL     1      11.377   0.674   4.940  0.00  0.00    +0.092 A 
ATOM     11  C   UNL     1      11.509  -0.686   4.720  0.00  0.00    +0.029 A 
ENDROOT
BRANCH  10  12
ATOM     12  C   UNL     1      12.548   1.571   4.931  0.00  0.00    +0.116 A 
ATOM     13  N   UNL     1      12.604   2.879   5.135  0.00  0.00    -0.239 NA
ATOM     14  C   UNL     1      13.751   3.530   5.090  0.00  0.00    +0.079 A 
ATOM     15  C   UNL     1      14.907   2.842   4.827  0.00  0.00    +0.075 A 
ATOM     16  S   UNL     1      14.270   1.180   4.650  0.00  0.00    -0.075 S 
BRANCH  14  17
ATOM     17  C   UNL     1      13.790   4.995   5.321  0.00  0.00    +0.001 A 
ATOM     18  C   UNL     1      15.002   5.681   5.266  0.00  0.00    +0.010 A 
ATOM     19  C   UNL     1      15.031   7.043   5.482  0.00  0.00    +0.001 A 
ATOM     20  C   UNL     1      13.861   7.729   5.753  0.00  0.00    +0.000 A 
ATOM     21  C   UNL     1      12.655   7.054   5.808  0.00  0.00    +0.001 A 
ATOM     22  C   UNL     1      12.613   5.692   5.588  0.00  0.00    +0.010 A 
ENDBRANCH  14  17
ENDBRANCH  10  12
BRANCH   2  23
ATOM     23  O   UNL     1       6.912  -3.786   4.776  0.00  0.00    -0.506 OA
ATOM     24  H   UNL     1       6.552  -3.998   3.903  0.00  0.00    +0.292 HD
ENDBRANCH   2  23
BRANCH   1  25
ATOM     25  C   UNL     1       6.568  -0.989   4.811  0.00  0.00    +0.126 C 
BRANCH  25  29
ATOM     26  N   UNL     1       4.153  -0.953   1.342  0.00  0.00    +0.384 N 
ATOM     27  C   UNL     1       4.432   0.329   2.002  0.00  0.00    -0.063 C 
ATOM     28  C   UNL     1       4.874   0.074   3.445  0.00  0.00    +0.066 C 
ATOM     29  N   UNL     1       6.079  -0.768   3.443  0.00  0.00    -0.301 NA
ATOM     30  C   UNL     1       5.822  -2.045   2.763  0.00  0.00    +0.066 C 
ATOM     31  C   UNL     1       5.372  -1.773   1.326  0.00  0.00    -0.063 C 
ATOM     32  H   UNL     1       3.427  -1.440   1.845  0.00  0.00    -0.081 HD
BRANCH  26  33
ATOM     33  C   UNL     1       3.711  -0.707  -0.038  0.00  0.00    -0.043 C 
BRANCH  33  37
ATOM     34  C   UNL     1      -0.017   1.378   0.010  0.00  0.00    +0.000 A 
ATOM     35  C   UNL     1       1.171   2.086   0.002  0.00  0.00    +0.000 A 
ATOM     36  C   UNL     1       2.377   1.411  -0.013  0.00  0.00    +0.002 A 
ATOM     37  C   UNL     1       2.396   0.029  -0.020  0.00  0.00    -0.064 A 
ATOM     38  C   UNL     1       1.208  -0.679  -0.012  0.00  0.00    +0.002 A 
ATOM     39  C   UNL     1       0.002  -0.004   0.002  0.00  0.00    +0.000 A 
ENDBRANCH  33  37
ENDBRANCH  26  33
ENDBRANCH  25  29
ENDBRANCH   1  25
TORSDOF 7
