REMARK  Name = ZINC63686666
REMARK  10 active torsions:
REMARK  status: ('A' for Active; 'I' for Inactive)
REMARK    1  A    between atoms: C_1  and  C_2
REMARK    2  A    between atoms: C_6  and  O_8
REMARK    3  A    between atoms: O_8  and  C_9
REMARK    4  A    between atoms: C_9  and  C_10
REMARK    5  A    between atoms: C_14  and  S_18
REMARK    6  A    between atoms: N_16  and  C_17
REMARK    7  A    between atoms: S_18  and  C_19
REMARK    8  A    between atoms: C_19  and  C_20
REMARK    9  A    between atoms: C_27  and  O_28
REMARK   10  A    between atoms: O_28  and  C_29
REMARK                            x       y       z     vdW  Elec       q    Type
REMARK                         _______ _______ _______ _____ _____    ______ ____
ROOT
ATOM      1  C   UNL     1       0.080  -4.901   3.601  0.00  0.00    +0.178 C 
ATOM      2  N   UNL     1      -1.194  -4.481   4.227  0.00  0.00    -0.234 NA
ATOM      3  N   UNL     1      -0.868  -4.322   5.653  0.00  0.00    -0.229 NA
ATOM      4  C   UNL     1       0.499  -3.741   5.623  0.00  0.00    +0.200 C 
ATOM      5  N   UNL     1       1.163  -4.429   4.490  0.00  0.00    -0.261 NA
ATOM      6  C   UNL     1       1.983  -5.552   4.962  0.00  0.00    +0.109 C 
ATOM      7  H   UNL     1      -1.521  -3.611   3.833  0.00  0.00    +0.142 HD
ATOM      8  H   UNL     1      -0.872  -5.214   6.126  0.00  0.00    +0.143 HD
ENDROOT
BRANCH   1   9
ATOM      9  C   UNL     1       0.221  -4.261   2.218  0.00  0.00    +0.265 C 
BRANCH   9  10
ATOM     10  O   UNL     1       0.159  -2.839   2.343  0.00  0.00    -0.489 OA
BRANCH  10  16
ATOM     11  C   UNL     1       0.272   1.511   0.132  0.00  0.00    +0.044 C 
ATOM     12  C   UNL     1       0.329   0.006   0.081  0.00  0.00    -0.047 A 
ATOM     13  C   UNL     1       0.492  -0.639  -1.131  0.00  0.00    +0.003 A 
ATOM     14  C   UNL     1       0.545  -2.019  -1.181  0.00  0.00    +0.004 A 
ATOM     15  C   UNL     1       0.433  -2.759  -0.019  0.00  0.00    +0.045 A 
ATOM     16  C   UNL     1       0.269  -2.114   1.198  0.00  0.00    +0.121 A 
ATOM     17  C   UNL     1       0.223  -0.728   1.246  0.00  0.00    +0.049 A 
ENDBRANCH  10  16
ENDBRANCH   9  10
ENDBRANCH   1   9
BRANCH   4  18
ATOM     18  S   UNL     1       1.371  -4.085   7.176  0.00  0.00    -0.119 S 
BRANCH  18  19
ATOM     19  C   UNL     1       0.620  -2.938   8.364  0.00  0.00    +0.125 C 
BRANCH  19  20
ATOM     20  C   UNL     1       1.318  -3.065   9.694  0.00  0.00    +0.030 A 
ATOM     21  N   UNL     1       1.063  -4.151  10.462  0.00  0.00    -0.354 N 
ATOM     22  C   UNL     1       1.668  -4.326  11.688  0.00  0.00    +0.093 A 
ATOM     23  C   UNL     1       2.572  -3.359  12.159  0.00  0.00    +0.049 A 
ATOM     24  C   UNL     1       3.190  -3.525  13.399  0.00  0.00    +0.014 A 
ATOM     25  C   UNL     1       2.913  -4.630  14.153  0.00  0.00    +0.004 A 
ATOM     26  C   UNL     1       2.022  -5.591  13.698  0.00  0.00    +0.048 A 
ATOM     27  C   UNL     1       1.398  -5.449  12.473  0.00  0.00    +0.144 A 
ATOM     28  C   UNL     1       2.843  -2.182  11.315  0.00  0.00    +0.190 A 
ATOM     29  O   UNL     1       3.620  -1.313  11.676  0.00  0.00    -0.287 OA
ATOM     30  C   UNL     1       2.177  -2.095  10.071  0.00  0.00    +0.073 A 
ATOM     31  H   UNL     1       0.439  -4.821  10.142  0.00  0.00    +0.166 HD
BRANCH  27  32
ATOM     32  O   UNL     1       0.525  -6.395  12.036  0.00  0.00    -0.493 OA
ATOM     33  C   UNL     1       0.300  -7.516  12.894  0.00  0.00    +0.277 C 
ENDBRANCH  27  32
ENDBRANCH  19  20
ENDBRANCH  18  19
ENDBRANCH   4  18
TORSDOF 7
