REMARK  Name = ZINC11784156
REMARK  9 active torsions:
REMARK  status: ('A' for Active; 'I' for Inactive)
REMARK    1  A    between atoms: C_1  and  O_2
REMARK    2  A    between atoms: O_2  and  C_3
REMARK    3  A    between atoms: C_8  and  C_21
REMARK    4  A    between atoms: C_16  and  C_19
REMARK    5  A    between atoms: C_19  and  O_20
REMARK    6  A    between atoms: C_21  and  N_65
REMARK    7  A    between atoms: C_22  and  C_23
REMARK    8  A    between atoms: C_22  and  N_65
REMARK    9  A    between atoms: C_23  and  C_24
REMARK                            x       y       z     vdW  Elec       q    Type
REMARK                         _______ _______ _______ _____ _____    ______ ____
ROOT
ATOM      1  C   UNL     1       8.564   6.412  -1.353  0.00  0.00    +0.122 A 
ATOM      2  C   UNL     1       8.392   7.763  -1.667  0.00  0.00    +0.046 A 
ATOM      3  C   UNL     1       7.177   8.359  -1.536  0.00  0.00    +0.013 A 
ATOM      4  C   UNL     1       6.078   7.614  -1.080  0.00  0.00    -0.001 A 
ATOM      5  C   UNL     1       4.806   8.204  -0.934  0.00  0.00    +0.015 A 
ATOM      6  C   UNL     1       3.778   7.426  -0.494  0.00  0.00    -0.026 A 
ATOM      7  C   UNL     1       4.005   6.077  -0.188  0.00  0.00    +0.101 A 
ATOM      8  C   UNL     1       6.241   6.244  -0.760  0.00  0.00    +0.051 A 
ATOM      9  C   UNL     1       7.507   5.653  -0.904  0.00  0.00    +0.071 A 
ATOM     10  N   UNL     1       2.950   5.298   0.265  0.00  0.00    -0.316 N 
ATOM     11  C   UNL     1       3.264   4.693   1.566  0.00  0.00    +0.106 C 
ATOM     12  C   UNL     1       2.029   3.964   2.101  0.00  0.00    +0.019 C 
ATOM     13  C   UNL     1       1.609   2.882   1.103  0.00  0.00    +0.009 C 
ATOM     14  C   UNL     1       1.335   3.532  -0.257  0.00  0.00    +0.032 C 
ATOM     15  C   UNL     1       2.590   4.274  -0.724  0.00  0.00    +0.112 C 
ATOM     16  N   UNL     1       5.205   5.456  -0.308  0.00  0.00    -0.343 N 
ATOM     17  H   UNL     1       5.332   4.463  -0.079  0.00  0.00    +0.167 HD
ENDROOT
BRANCH   1  19
ATOM     18  C   UNL     1      10.846   6.679  -1.963  0.00  0.00    +0.277 C 
ATOM     19  O   UNL     1       9.789   5.840  -1.493  0.00  0.00    -0.495 OA
ENDBRANCH   1  19
BRANCH  14  20
ATOM     20  C   UNL     1       0.972   2.450  -1.276  0.00  0.00    +0.160 C 
BRANCH  20  21
ATOM     21  O   UNL     1      -0.262   1.836  -0.900  0.00  0.00    -0.395 OA
ATOM     22  H   UNL     1      -0.554   1.139  -1.503  0.00  0.00    +0.209 HD
ENDBRANCH  20  21
ENDBRANCH  14  20
BRANCH   6  23
ATOM     23  C   UNL     1       2.401   8.016  -0.330  0.00  0.00    -0.043 C 
BRANCH  23  24
ATOM     24  N   UNL     1       2.159   8.288   1.099  0.00  0.00    +0.382 N 
ATOM     25  H   UNL     1       2.915   8.879   1.464  0.00  0.00    -0.085 HD
ATOM     26  H   UNL     1       2.140   7.400   1.615  0.00  0.00    -0.085 HD
BRANCH  24  27
ATOM     27  C   UNL     1       0.870   8.982   1.277  0.00  0.00    -0.078 C 
BRANCH  27  28
ATOM     28  C   UNL     1       0.646   9.251   2.767  0.00  0.00    +0.011 C 
BRANCH  28  29
ATOM     29  C   UNL     1      -0.670   9.960   2.957  0.00  0.00    -0.075 C 
ATOM     30  C   UNL     1      -1.712   9.242   3.229  0.00  0.00    -0.028 C 
ATOM     31  C   UNL     1      -3.088   9.804   3.441  0.00  0.00    +0.027 C 
ATOM     32  C   UNL     1      -3.010  11.310   3.699  0.00  0.00    +0.004 C 
ATOM     33  C   UNL     1      -2.127  11.943   2.616  0.00  0.00    +0.005 C 
ATOM     34  C   UNL     1      -0.691  11.454   2.814  0.00  0.00    +0.030 C 
ENDBRANCH  28  29
ENDBRANCH  27  28
ENDBRANCH  24  27
ENDBRANCH  23  24
ENDBRANCH   6  23
TORSDOF 8
