REMARK  Name = ZINC12983481
REMARK  11 active torsions:
REMARK  status: ('A' for Active; 'I' for Inactive)
REMARK    1  A    between atoms: C_1  and  C_2
REMARK    2  A    between atoms: C_5  and  O_9
REMARK    3  A    between atoms: C_6  and  C_8
REMARK    4  A    between atoms: O_9  and  C_10
REMARK    5  A    between atoms: C_10  and  C_11
REMARK    6  A    between atoms: C_14  and  S_17
REMARK    7  A    between atoms: N_15  and  N_16
REMARK    8  A    between atoms: S_17  and  C_18
REMARK    9  A    between atoms: C_18  and  C_20
REMARK   10  A    between atoms: C_18  and  C_21
REMARK   11  A    between atoms: N_23  and  C_24
REMARK                            x       y       z     vdW  Elec       q    Type
REMARK                         _______ _______ _______ _____ _____    ______ ____
ROOT
ATOM      1  C   UNL     1       3.738  -0.811  -0.019  0.00  0.00    +0.189 A 
ATOM      2  N   UNL     1       4.467  -1.106   1.020  0.00  0.00    -0.128 NA
ATOM      3  N   UNL     1       5.606  -1.568   0.644  0.00  0.00    -0.121 NA
ATOM      4  C   UNL     1       5.666  -1.593  -0.667  0.00  0.00    +0.209 A 
ATOM      5  N   UNL     1       4.473  -1.115  -1.131  0.00  0.00    -0.225 N 
ENDROOT
BRANCH   5   6
ATOM      6  N   UNL     1       4.095  -0.970  -2.435  0.00  0.00    -0.295 N 
ATOM      7  H   UNL     1       4.348  -0.058  -2.786  0.00  0.00    +0.163 HD
ATOM      8  H   UNL     1       4.488  -1.700  -3.010  0.00  0.00    +0.163 HD
ENDBRANCH   5   6
BRANCH   1   9
ATOM      9  C   UNL     1       2.341  -0.246   0.001  0.00  0.00    +0.306 C 
BRANCH   9  10
ATOM     10  O   UNL     1       2.405   1.181   0.007  0.00  0.00    -0.484 OA
BRANCH  10  15
ATOM     11  C   UNL     1      -2.494   3.959   0.080  0.00  0.00    +0.044 C 
ATOM     12  C   UNL     1      -1.183   3.216   0.061  0.00  0.00    -0.050 A 
ATOM     13  C   UNL     1      -1.174   1.833   0.049  0.00  0.00    +0.007 A 
ATOM     14  C   UNL     1       0.026   1.150   0.036  0.00  0.00    +0.046 A 
ATOM     15  C   UNL     1       1.223   1.852   0.024  0.00  0.00    +0.124 A 
ATOM     16  C   UNL     1       1.211   3.239   0.031  0.00  0.00    -0.009 A 
ATOM     17  C   UNL     1       0.008   3.918   0.050  0.00  0.00    +0.010 A 
ATOM     18  C   UNL     1       2.509   4.004   0.019  0.00  0.00    +0.047 C 
ENDBRANCH  10  15
ENDBRANCH   9  10
ENDBRANCH   1   9
BRANCH   4  19
ATOM     19  S   UNL     1       7.025  -2.144  -1.643  0.00  0.00    -0.072 S 
BRANCH  19  20
ATOM     20  C   UNL     1       8.183  -2.612  -0.334  0.00  0.00    +0.137 C 
ATOM     21  C   UNL     1       8.592  -1.366   0.455  0.00  0.00    +0.029 C 
BRANCH  20  22
ATOM     22  C   UNL     1       9.407  -3.241  -0.947  0.00  0.00    +0.230 C 
ATOM     23  O   UNL     1       9.719  -2.975  -2.089  0.00  0.00    -0.274 OA
ATOM     24  N   UNL     1      10.156  -4.100  -0.227  0.00  0.00    -0.283 N 
ATOM     25  H   UNL     1       9.945  -4.264   0.706  0.00  0.00    +0.155 HD
BRANCH  24  26
ATOM     26  C   UNL     1      11.239  -4.758  -0.826  0.00  0.00    +0.052 A 
ATOM     27  C   UNL     1      11.996  -4.111  -1.793  0.00  0.00    +0.027 A 
ATOM     28  C   UNL     1      13.063  -4.760  -2.382  0.00  0.00    +0.040 A 
ATOM     29  C   UNL     1      13.378  -6.056  -2.009  0.00  0.00    +0.125 A 
ATOM     30  C   UNL     1      12.625  -6.704  -1.044  0.00  0.00    +0.060 A 
ATOM     31  C   UNL     1      11.559  -6.056  -0.448  0.00  0.00    +0.065 A 
ATOM     32 CL   UNL     1      10.619  -6.865   0.766  0.00  0.00    -0.082 Cl
ATOM     33  F   UNL     1      14.422  -6.689  -2.587  0.00  0.00    -0.205 F 
ENDBRANCH  24  26
ENDBRANCH  20  22
ENDBRANCH  19  20
ENDBRANCH   4  19
TORSDOF 8
