REMARK  Name = ZINC10784787
REMARK  8 active torsions:
REMARK  status: ('A' for Active; 'I' for Inactive)
REMARK    1  A    between atoms: C_1  and  C_2
REMARK    2  A    between atoms: C_5  and  C_8
REMARK    3  A    between atoms: C_11  and  S_14
REMARK    4  A    between atoms: N_12  and  N_13
REMARK    5  A    between atoms: S_14  and  C_15
REMARK    6  A    between atoms: C_15  and  C_17
REMARK    7  A    between atoms: C_15  and  C_18
REMARK    8  A    between atoms: N_20  and  C_21
REMARK                            x       y       z     vdW  Elec       q    Type
REMARK                         _______ _______ _______ _____ _____    ______ ____
ROOT
ATOM      1  S   UNL     1      -2.444   5.494   1.631  0.00  0.00    -0.072 S 
ENDROOT
BRANCH   1   5
ATOM      2  C   UNL     1      -5.960   7.108   2.173  0.00  0.00    +0.182 A 
ATOM      3  N   UNL     1      -6.227   6.096   1.381  0.00  0.00    -0.127 NA
ATOM      4  N   UNL     1      -5.147   5.456   1.109  0.00  0.00    -0.121 NA
ATOM      5  C   UNL     1      -4.123   6.020   1.710  0.00  0.00    +0.209 A 
ATOM      6  N   UNL     1      -4.606   7.087   2.413  0.00  0.00    -0.224 N 
BRANCH   2  11
ATOM      7  C   UNL     1      -9.746  10.902   4.269  0.00  0.00    +0.044 C 
ATOM      8  C   UNL     1      -8.754   9.909   3.720  0.00  0.00    -0.050 A 
ATOM      9  C   UNL     1      -9.203   8.727   3.158  0.00  0.00    +0.004 A 
ATOM     10  C   UNL     1      -8.301   7.813   2.654  0.00  0.00    +0.012 A 
ATOM     11  C   UNL     1      -6.933   8.083   2.711  0.00  0.00    +0.021 A 
ATOM     12  C   UNL     1      -6.487   9.275   3.284  0.00  0.00    +0.012 A 
ATOM     13  C   UNL     1      -7.399  10.183   3.780  0.00  0.00    +0.004 A 
ENDBRANCH   2  11
BRANCH   6  14
ATOM     14  N   UNL     1      -3.891   7.954   3.190  0.00  0.00    -0.295 N 
ATOM     15  H   UNL     1      -3.563   8.739   2.648  0.00  0.00    +0.163 HD
ATOM     16  H   UNL     1      -4.436   8.263   3.982  0.00  0.00    +0.163 HD
ENDBRANCH   6  14
ENDBRANCH   1   5
BRANCH   1  17
ATOM     17  C   UNL     1      -2.616   4.057   0.543  0.00  0.00    +0.137 C 
ATOM     18  C   UNL     1      -3.074   4.518  -0.842  0.00  0.00    +0.029 C 
BRANCH  17  19
ATOM     19  C   UNL     1      -1.288   3.354   0.426  0.00  0.00    +0.230 C 
ATOM     20  O   UNL     1      -0.263   3.945   0.697  0.00  0.00    -0.274 OA
ATOM     21  N   UNL     1      -1.238   2.070   0.019  0.00  0.00    -0.282 N 
ATOM     22  H   UNL     1      -2.049   1.621  -0.267  0.00  0.00    +0.155 HD
BRANCH  21  23
ATOM     23  C   UNL     1      -0.017   1.385   0.010  0.00  0.00    +0.071 A 
ATOM     24  C   UNL     1       0.775   1.389  -1.131  0.00  0.00    +0.065 A 
ATOM     25  C   UNL     1       1.978   0.707  -1.139  0.00  0.00    +0.042 A 
ATOM     26  C   UNL     1       2.393   0.021  -0.012  0.00  0.00    +0.044 A 
ATOM     27  C   UNL     1       1.606   0.015   1.127  0.00  0.00    +0.042 A 
ATOM     28  C   UNL     1       0.402   0.695   1.141  0.00  0.00    +0.065 A 
ATOM     29 CL   UNL     1      -0.584   0.687   2.569  0.00  0.00    -0.082 Cl
ATOM     30 CL   UNL     1       3.903  -0.834  -0.025  0.00  0.00    -0.083 Cl
ATOM     31 CL   UNL     1       0.255   2.250  -2.546  0.00  0.00    -0.082 Cl
ENDBRANCH  21  23
ENDBRANCH  17  19
ENDBRANCH   1  17
TORSDOF 6
