REMARK  Name = ZINC02419823
REMARK  6 active torsions:
REMARK  status: ('A' for Active; 'I' for Inactive)
REMARK    1  A    between atoms: C_1  and  C_2
REMARK    2  A    between atoms: C_5  and  S_8
REMARK    3  A    between atoms: S_8  and  C_11
REMARK    4  A    between atoms: N_22  and  C_25
REMARK    5  A    between atoms: C_23  and  N_24
REMARK    6  A    between atoms: C_25  and  C_26
REMARK                            x       y       z     vdW  Elec       q    Type
REMARK                         _______ _______ _______ _____ _____    ______ ____
ROOT
ATOM      1  C   UNL     1       3.338   2.734   0.758  0.00  0.00    +0.160 A 
ATOM      2  C   UNL     1       3.401   2.770  -0.656  0.00  0.00    +0.135 A 
ATOM      3  C   UNL     1       2.095   2.293  -1.129  0.00  0.00    +0.163 A 
ATOM      4  N   UNL     1       1.859   2.217  -2.419  0.00  0.00    -0.226 NA
ATOM      5  C   UNL     1       2.808   2.575  -3.293  0.00  0.00    +0.092 A 
ATOM      6  C   UNL     1       2.563   2.497  -4.677  0.00  0.00    +0.030 A 
ATOM      7  C   UNL     1       3.532   2.862  -5.558  0.00  0.00    +0.002 A 
ATOM      8  C   UNL     1       4.773   3.316  -5.112  0.00  0.00    +0.002 A 
ATOM      9  C   UNL     1       5.047   3.406  -3.783  0.00  0.00    +0.030 A 
ATOM     10  C   UNL     1       4.069   3.037  -2.840  0.00  0.00    +0.090 A 
ATOM     11  N   UNL     1       4.330   3.121  -1.531  0.00  0.00    -0.240 NA
ATOM     12  N   UNL     1       1.356   2.010  -0.000  0.00  0.00    -0.307 N 
ATOM     13  C   UNL     1       2.112   2.284   1.112  0.00  0.00    +0.126 A 
ENDROOT
BRANCH   1  14
ATOM     14  S   UNL     1       4.629   3.200   1.863  0.00  0.00    +0.030 S 
ATOM     15  O   UNL     1       4.388   2.511   3.083  0.00  0.00    -0.164 OA
ATOM     16  O   UNL     1       5.847   3.069   1.143  0.00  0.00    -0.164 OA
BRANCH  14  21
ATOM     17  C   UNL     1       3.940   9.078   3.035  0.00  0.00    +0.044 C 
ATOM     18  C   UNL     1       4.112   7.610   2.742  0.00  0.00    -0.050 A 
ATOM     19  C   UNL     1       3.489   6.669   3.540  0.00  0.00    +0.005 A 
ATOM     20  C   UNL     1       3.647   5.322   3.272  0.00  0.00    +0.027 A 
ATOM     21  C   UNL     1       4.428   4.917   2.205  0.00  0.00    +0.094 A 
ATOM     22  C   UNL     1       5.055   5.858   1.411  0.00  0.00    +0.027 A 
ATOM     23  C   UNL     1       4.894   7.205   1.677  0.00  0.00    +0.005 A 
ENDBRANCH  14  21
ENDBRANCH   1  14
BRANCH  13  24
ATOM     24  N   UNL     1       1.680   2.121   2.416  0.00  0.00    -0.343 N 
ATOM     25  H   UNL     1       0.786   1.790   2.593  0.00  0.00    +0.144 HD
ATOM     26  H   UNL     1       2.272   2.337   3.154  0.00  0.00    +0.144 HD
ENDBRANCH  13  24
BRANCH  12  27
ATOM     27  C   UNL     1      -0.018   1.503   0.010  0.00  0.00    +0.160 C 
BRANCH  27  28
ATOM     28  C   UNL     1       0.002  -0.004   0.002  0.00  0.00    -0.028 A 
ATOM     29  C   UNL     1      -0.006  -0.689  -1.199  0.00  0.00    +0.007 A 
ATOM     30  C   UNL     1       0.019  -2.071  -1.207  0.00  0.00    +0.020 A 
ATOM     31  C   UNL     1       0.040  -2.769  -0.013  0.00  0.00    +0.041 A 
ATOM     32  C   UNL     1       0.042  -2.083   1.188  0.00  0.00    +0.020 A 
ATOM     33  C   UNL     1       0.023  -0.701   1.196  0.00  0.00    +0.007 A 
ATOM     34 CL   UNL     1       0.064  -4.505  -0.023  0.00  0.00    -0.084 Cl
ENDBRANCH  27  28
ENDBRANCH  12  27
TORSDOF 5
