REMARK  Name = ZINC04808057
REMARK  7 active torsions:
REMARK  status: ('A' for Active; 'I' for Inactive)
REMARK    1  A    between atoms: C_3  and  O_23
REMARK    2  A    between atoms: C_4  and  C_8
REMARK    3  A    between atoms: C_8  and  O_10
REMARK    4  A    between atoms: O_10  and  C_11
REMARK    5  A    between atoms: C_11  and  C_12
REMARK    6  A    between atoms: N_14  and  C_15
REMARK    7  A    between atoms: C_15  and  C_21
REMARK                            x       y       z     vdW  Elec       q    Type
REMARK                         _______ _______ _______ _____ _____    ______ ____
ROOT
ATOM      1  C   UNL     1       3.614   2.177   0.990  0.00  0.00    +0.328 C 
ENDROOT
BRANCH   1   2
ATOM      2  C   UNL     1       2.200   1.655   1.001  0.00  0.00    +0.252 C 
ATOM      3  O   UNL     1       1.822   0.948   1.910  0.00  0.00    -0.272 OA
ATOM      4  N   UNL     1       1.357   1.975  -0.000  0.00  0.00    -0.295 N 
ATOM      5  H   UNL     1       1.659   2.541  -0.728  0.00  0.00    +0.150 HD
BRANCH   4   6
ATOM      6  C   UNL     1      -0.018   1.468   0.010  0.00  0.00    +0.121 C 
ATOM      7  C   UNL     1      -0.734   1.961   1.269  0.00  0.00    +0.041 C 
ATOM      8  C   UNL     1      -2.169   1.432   1.280  0.00  0.00    +0.003 C 
ATOM      9  C   UNL     1      -2.909   1.938   0.040  0.00  0.00    +0.000 C 
ATOM     10  C   UNL     1      -2.193   1.445  -1.219  0.00  0.00    +0.003 C 
ATOM     11  C   UNL     1      -0.758   1.975  -1.229  0.00  0.00    +0.041 C 
BRANCH   6  12
ATOM     12  C   UNL     1       0.002  -0.004   0.002  0.00  0.00    +0.088 C 
ATOM     13  N   UNL     1       0.018  -1.140  -0.004  0.00  0.00    -0.194 NA
ENDBRANCH   6  12
ENDBRANCH   4   6
ENDBRANCH   1   2
BRANCH   1  14
ATOM     14  O   UNL     1       4.316   1.696   2.167  0.00  0.00    -0.452 OA
BRANCH  14  15
ATOM     15  C   UNL     1       5.602   2.075   2.309  0.00  0.00    +0.343 C 
ATOM     16  O   UNL     1       6.121   2.787   1.473  0.00  0.00    -0.245 OA
BRANCH  15  20
ATOM     17  C   UNL     1       7.837   0.778   5.681  0.00  0.00    +0.019 A 
ATOM     18  C   UNL     1       8.435   1.587   4.736  0.00  0.00    +0.047 A 
ATOM     19  C   UNL     1       7.715   2.016   3.631  0.00  0.00    +0.131 A 
ATOM     20  C   UNL     1       6.377   1.624   3.479  0.00  0.00    +0.101 A 
ATOM     21  C   UNL     1       5.782   0.809   4.445  0.00  0.00    +0.034 A 
ATOM     22  C   UNL     1       6.514   0.388   5.535  0.00  0.00    +0.019 A 
ATOM     23 BR   UNL     1       5.710  -0.721   6.839  0.00  0.00    -0.050 Br
BRANCH  19  24
ATOM     24  O   UNL     1       8.302   2.811   2.702  0.00  0.00    -0.506 OA
ATOM     25  H   UNL     1       8.212   3.757   2.880  0.00  0.00    +0.292 HD
ENDBRANCH  19  24
ENDBRANCH  15  20
ENDBRANCH  14  15
ENDBRANCH   1  14
TORSDOF 7
