REMARK  Name = ZINC05173943
REMARK  4 active torsions:
REMARK  status: ('A' for Active; 'I' for Inactive)
REMARK    1  A    between atoms: C_1  and  C_2
REMARK    2  A    between atoms: C_7  and  C_13
REMARK    3  A    between atoms: C_13  and  S_14
REMARK    4  A    between atoms: S_14  and  C_15
REMARK                            x       y       z     vdW  Elec       q    Type
REMARK                         _______ _______ _______ _____ _____    ______ ____
ROOT
ATOM      1  C   UNL     1      -3.729   5.843   0.066  0.00  0.00    +0.133 C 
ENDROOT
BRANCH   1   8
ATOM      2  C   UNL     1       2.506   1.065  -0.016  0.00  0.00    +0.045 C 
ATOM      3  C   UNL     1       1.189   1.798   0.000  0.00  0.00    -0.034 A 
ATOM      4  C   UNL     1      -0.013   1.076   0.008  0.00  0.00    +0.008 A 
ATOM      5  C   UNL     1      -1.199   1.746   0.017  0.00  0.00    +0.047 A 
ATOM      6  C   UNL     1      -1.199   3.152   0.030  0.00  0.00    +0.141 A 
ATOM      7  N   UNL     1      -2.358   3.809   0.043  0.00  0.00    -0.233 NA
ATOM      8  C   UNL     1      -2.400   5.132   0.051  0.00  0.00    +0.059 A 
ATOM      9  C   UNL     1      -1.227   5.862   0.044  0.00  0.00    +0.094 A 
ATOM     10  C   UNL     1      -0.005   5.179   0.030  0.00  0.00    +0.259 A 
ATOM     11  O   UNL     1       1.049   5.794   0.024  0.00  0.00    -0.267 OA
ATOM     12  N   UNL     1      -0.011   3.829   0.023  0.00  0.00    -0.268 N 
ATOM     13  C   UNL     1       1.169   3.150   0.008  0.00  0.00    +0.099 A 
ENDBRANCH   1   8
BRANCH   1  14
ATOM     14  S   UNL     1      -4.483   5.747  -1.577  0.00  0.00    -0.082 S 
BRANCH  14  15
ATOM     15  C   UNL     1      -5.978   6.632  -1.279  0.00  0.00    +0.168 A 
ATOM     16  N   UNL     1      -6.950   6.867  -2.211  0.00  0.00    -0.333 N 
ATOM     17  H   UNL     1      -6.939   6.572  -3.166  0.00  0.00    +0.168 HD
ATOM     18  C   UNL     1      -7.952   7.589  -1.584  0.00  0.00    +0.068 A 
ATOM     19  C   UNL     1      -9.168   8.108  -2.003  0.00  0.00    +0.047 A 
ATOM     20  C   UNL     1      -9.963   8.801  -1.112  0.00  0.00    +0.043 A 
ATOM     21  C   UNL     1      -9.553   8.981   0.202  0.00  0.00    +0.022 A 
ATOM     22  C   UNL     1      -8.349   8.472   0.634  0.00  0.00    +0.031 A 
ATOM     23  C   UNL     1      -7.533   7.769  -0.256  0.00  0.00    +0.090 A 
ATOM     24  N   UNL     1      -6.325   7.158  -0.131  0.00  0.00    -0.222 NA
ATOM     25 CL   UNL     1     -11.484   9.452  -1.638  0.00  0.00    -0.083 Cl
ENDBRANCH  14  15
ENDBRANCH   1  14
TORSDOF 3
