REMARK  Name = ZINC09311752
REMARK  4 active torsions:
REMARK  status: ('A' for Active; 'I' for Inactive)
REMARK    1  A    between atoms: C_4  and  N_7
REMARK    2  A    between atoms: N_14  and  N_15
REMARK    3  A    between atoms: C_16  and  C_17
REMARK    4  A    between atoms: N_23  and  C_24
REMARK                            x       y       z     vdW  Elec       q    Type
REMARK                         _______ _______ _______ _____ _____    ______ ____
ROOT
ATOM      1  N   UNL     1      -0.091   5.211  -0.310  0.00  0.00    -0.283 N 
ATOM      2  C   UNL     1      -1.280   5.905  -0.185  0.00  0.00    +0.225 A 
ATOM      3  N   UNL     1      -1.294   7.228  -0.317  0.00  0.00    -0.181 NA
ATOM      4  C   UNL     1      -2.438   7.895  -0.197  0.00  0.00    +0.225 A 
ATOM      5  N   UNL     1      -3.566   7.240   0.057  0.00  0.00    -0.179 NA
ATOM      6  C   UNL     1      -3.552   5.917   0.189  0.00  0.00    +0.241 A 
ATOM      7  N   UNL     1      -2.409   5.249   0.062  0.00  0.00    -0.179 NA
ATOM      8  N   UNL     1      -4.724   5.237   0.451  0.00  0.00    -0.205 N 
ATOM      9  N   UNL     1      -2.453   9.270  -0.334  0.00  0.00    -0.283 N 
ATOM     10  H   UNL     1       0.716   5.677  -0.578  0.00  0.00    +0.155 HD
ATOM     11  H   UNL     1      -5.558   5.724   0.539  0.00  0.00    +0.177 HD
ATOM     12  H   UNL     1      -1.620   9.756  -0.441  0.00  0.00    +0.155 HD
ENDROOT
BRANCH   1  16
ATOM     13  C   UNL     1       0.023   1.120   0.462  0.00  0.00    +0.000 A 
ATOM     14  C   UNL     1       0.781   1.649  -0.567  0.00  0.00    +0.002 A 
ATOM     15  C   UNL     1       0.741   3.005  -0.829  0.00  0.00    +0.023 A 
ATOM     16  C   UNL     1      -0.053   3.838  -0.051  0.00  0.00    +0.034 A 
ATOM     17  C   UNL     1      -0.808   3.304   0.985  0.00  0.00    +0.023 A 
ATOM     18  C   UNL     1      -0.768   1.946   1.238  0.00  0.00    +0.002 A 
ENDBRANCH   1  16
BRANCH   9  19
ATOM     19  C   UNL     1      -3.668   9.961  -0.319  0.00  0.00    +0.034 A 
ATOM     20  C   UNL     1      -4.792   9.406  -0.918  0.00  0.00    +0.023 A 
ATOM     21  C   UNL     1      -5.992  10.089  -0.897  0.00  0.00    +0.002 A 
ATOM     22  C   UNL     1      -6.074  11.329  -0.289  0.00  0.00    +0.000 A 
ATOM     23  C   UNL     1      -4.955  11.887   0.302  0.00  0.00    +0.002 A 
ATOM     24  C   UNL     1      -3.753  11.207   0.290  0.00  0.00    +0.023 A 
ENDBRANCH   9  19
BRANCH   8  25
ATOM     25  N   UNL     1      -4.709   3.843   0.591  0.00  0.00    -0.184 NA
ATOM     26  C   UNL     1      -5.813   3.202   0.838  0.00  0.00    +0.176 C 
BRANCH  26  27
ATOM     27  C   UNL     1      -5.797   1.743   0.984  0.00  0.00    +0.149 A 
ATOM     28  C   UNL     1      -6.877   0.952   1.248  0.00  0.00    +0.052 A 
ATOM     29  C   UNL     1      -6.405  -0.373   1.300  0.00  0.00    +0.056 A 
ATOM     30  C   UNL     1      -5.075  -0.330   1.077  0.00  0.00    +0.165 A 
ATOM     31  O   UNL     1      -4.711   0.949   0.886  0.00  0.00    -0.448 OA
ATOM     32  I   UNL     1      -3.791  -1.984   1.034  0.00  0.00    -0.001 I 
ENDBRANCH  26  27
ENDBRANCH   8  25
TORSDOF 4
