REMARK  Name = ZINC03181552
REMARK  5 active torsions:
REMARK  status: ('A' for Active; 'I' for Inactive)
REMARK    1  A    between atoms: C_10  and  C_11
REMARK    2  A    between atoms: C_10  and  N_55
REMARK    3  A    between atoms: C_11  and  C_13
REMARK    4  A    between atoms: C_11  and  O_27
REMARK    5  A    between atoms: C_13  and  N_14
REMARK                            x       y       z     vdW  Elec       q    Type
REMARK                         _______ _______ _______ _____ _____    ______ ____
ROOT
ATOM      1  C   UNL     1      -4.201   3.641  -1.377  0.00  0.00    +0.118 C 
ENDROOT
BRANCH   1   2
ATOM      2  O   UNL     1      -4.104   4.918  -2.013  0.00  0.00    -0.392 OA
ATOM      3  H   UNL     1      -4.614   5.614  -1.577  0.00  0.00    +0.210 HD
ENDBRANCH   1   2
BRANCH   1   4
ATOM      4  C   UNL     1      -5.663   3.189  -1.364  0.00  0.00    -0.045 C 
BRANCH   4  14
ATOM      5  C   UNL     1      -6.894   1.011  -7.285  0.00  0.00    +0.000 A 
ATOM      6  C   UNL     1      -5.664   0.528  -6.880  0.00  0.00    +0.000 A 
ATOM      7  C   UNL     1      -5.199   0.808  -5.611  0.00  0.00    +0.002 A 
ATOM      8  C   UNL     1      -5.960   1.572  -4.738  0.00  0.00    -0.061 A 
ATOM      9  C   UNL     1      -7.186   2.056  -5.144  0.00  0.00    -0.048 A 
ATOM     10  C   UNL     1      -7.652   1.772  -6.418  0.00  0.00    +0.004 A 
ATOM     11  C   UNL     1      -8.046   2.895  -4.234  0.00  0.00    +0.017 C 
ATOM     12  C   UNL     1      -7.574   2.746  -2.787  0.00  0.00    -0.074 C 
ATOM     13  C   UNL     1      -5.413   1.847  -3.362  0.00  0.00    -0.043 C 
ATOM     14  N   UNL     1      -6.117   2.991  -2.758  0.00  0.00    +0.384 N 
ATOM     15  H   UNL     1      -5.909   3.838  -3.301  0.00  0.00    -0.081 HD
ENDBRANCH   4  14
ENDBRANCH   1   4
BRANCH   1  16
ATOM     16  C   UNL     1      -3.687   3.746   0.060  0.00  0.00    +0.151 C 
BRANCH  16  17
ATOM     17  N   UNL     1      -2.257   4.063   0.045  0.00  0.00    -0.341 N 
ATOM     18  C   UNL     1      -1.241   3.132   0.029  0.00  0.00    +0.050 A 
ATOM     19  C   UNL     1      -1.218   1.742   0.017  0.00  0.00    +0.026 A 
ATOM     20  C   UNL     1      -0.013   1.076   0.008  0.00  0.00    +0.002 A 
ATOM     21  C   UNL     1       1.184   1.780   0.000  0.00  0.00    +0.001 A 
ATOM     22  C   UNL     1       1.186   3.146   0.006  0.00  0.00    +0.010 A 
ATOM     23  C   UNL     1      -0.025   3.842   0.020  0.00  0.00    +0.003 A 
ATOM     24  C   UNL     1      -0.388   5.256   0.027  0.00  0.00    -0.019 A 
ATOM     25  C   UNL     1      -1.733   5.325   0.043  0.00  0.00    +0.023 A 
ATOM     26  C   UNL     1      -2.505   6.624   0.057  0.00  0.00    +0.054 C 
ATOM     27  C   UNL     1      -1.553   7.752   0.470  0.00  0.00    +0.006 C 
ATOM     28  C   UNL     1      -0.282   7.686  -0.382  0.00  0.00    +0.005 C 
ATOM     29  C   UNL     1       0.532   6.449   0.017  0.00  0.00    +0.037 C 
ENDBRANCH  16  17
ENDBRANCH   1  16
TORSDOF 5
