REMARK  Name = ZINC16629190
REMARK  5 active torsions:
REMARK  status: ('A' for Active; 'I' for Inactive)
REMARK    1  A    between atoms: C_6  and  N_7
REMARK    2  A    between atoms: C_10  and  C_15
REMARK    3  A    between atoms: C_15  and  S_16
REMARK    4  A    between atoms: S_16  and  C_17
REMARK    5  A    between atoms: N_19  and  C_23
REMARK                            x       y       z     vdW  Elec       q    Type
REMARK                         _______ _______ _______ _____ _____    ______ ____
ROOT
ATOM      1  N   UNL     1       8.982   0.330  -2.429  0.00  0.00    -0.284 N 
ATOM      2  C   UNL     1       8.300   0.273  -1.230  0.00  0.00    +0.224 A 
ATOM      3  N   UNL     1       6.990   0.509  -1.196  0.00  0.00    -0.198 NA
ATOM      4  C   UNL     1       6.336   0.455  -0.049  0.00  0.00    +0.146 A 
ATOM      5  N   UNL     1       6.980   0.170   1.069  0.00  0.00    -0.199 NA
ATOM      6  C   UNL     1       8.288  -0.074   1.043  0.00  0.00    +0.217 A 
ATOM      7  N   UNL     1       8.949  -0.019  -0.108  0.00  0.00    -0.181 NA
ATOM      8  N   UNL     1       8.958  -0.377   2.211  0.00  0.00    -0.327 N 
ATOM      9  H   UNL     1       8.496   0.463  -3.258  0.00  0.00    +0.155 HD
ATOM     10  H   UNL     1       9.912  -0.550   2.192  0.00  0.00    +0.145 HD
ATOM     11  H   UNL     1       8.475  -0.416   3.051  0.00  0.00    +0.145 HD
ENDROOT
BRANCH   1  17
ATOM     12  C   UNL     1      11.136   0.679  -1.393  0.00  0.00    +0.026 A 
ATOM     13  C   UNL     1      12.510   0.539  -1.411  0.00  0.00    +0.040 A 
ATOM     14  C   UNL     1      13.130  -0.073  -2.487  0.00  0.00    +0.124 A 
ATOM     15  C   UNL     1      12.374  -0.551  -3.544  0.00  0.00    +0.040 A 
ATOM     16  C   UNL     1      10.999  -0.419  -3.527  0.00  0.00    +0.026 A 
ATOM     17  C   UNL     1      10.375   0.195  -2.449  0.00  0.00    +0.034 A 
ATOM     18  F   UNL     1      14.474  -0.203  -2.506  0.00  0.00    -0.205 F 
ENDBRANCH   1  17
BRANCH   4  19
ATOM     19  C   UNL     1       4.854   0.724  -0.016  0.00  0.00    +0.152 C 
BRANCH  19  20
ATOM     20  S   UNL     1       3.954  -0.828  -0.257  0.00  0.00    -0.089 S 
BRANCH  20  21
ATOM     21  C   UNL     1       2.296  -0.236  -0.175  0.00  0.00    +0.158 A 
ATOM     22  N   UNL     1       1.176  -0.904  -0.283  0.00  0.00    -0.151 NA
ATOM     23  N   UNL     1      -0.035  -0.257  -0.190  0.00  0.00    -0.217 N 
ATOM     24  C   UNL     1      -0.042   1.084   0.014  0.00  0.00    +0.150 A 
ATOM     25  S   UNL     1      -1.369   2.155   0.164  0.00  0.00    -0.023 S 
ATOM     26  S   UNL     1       1.710   1.432   0.076  0.00  0.00    -0.034 S 
BRANCH  23  27
ATOM     27  C   UNL     1      -1.235  -0.968  -0.304  0.00  0.00    +0.067 A 
ATOM     28  C   UNL     1      -2.340  -0.593   0.450  0.00  0.00    +0.029 A 
ATOM     29  C   UNL     1      -3.524  -1.293   0.331  0.00  0.00    +0.022 A 
ATOM     30  C   UNL     1      -3.608  -2.374  -0.529  0.00  0.00    +0.041 A 
ATOM     31  C   UNL     1      -2.507  -2.752  -1.278  0.00  0.00    +0.022 A 
ATOM     32  C   UNL     1      -1.322  -2.053  -1.167  0.00  0.00    +0.029 A 
ATOM     33 CL   UNL     1      -5.096  -3.256  -0.670  0.00  0.00    -0.084 Cl
ENDBRANCH  23  27
ENDBRANCH  20  21
ENDBRANCH  19  20
ENDBRANCH   4  19
TORSDOF 5
