REMARK  Name = ZINC39593586
REMARK  8 active torsions:
REMARK  status: ('A' for Active; 'I' for Inactive)
REMARK    1  A    between atoms: C_1  and  C_2
REMARK    2  A    between atoms: C_5  and  N_9
REMARK    3  A    between atoms: C_6  and  C_8
REMARK    4  A    between atoms: C_10  and  C_12
REMARK    5  A    between atoms: C_12  and  S_13
REMARK    6  A    between atoms: S_13  and  C_14
REMARK    7  A    between atoms: C_17  and  C_21
REMARK    8  A    between atoms: N_19  and  N_20
REMARK                            x       y       z     vdW  Elec       q    Type
REMARK                         _______ _______ _______ _____ _____    ______ ____
ROOT
ATOM      1  C   UNL     1      -0.356  -8.692  -2.728  0.00  0.00    +0.189 C 
ATOM      2  N   UNL     1      -0.344  -9.311  -1.596  0.00  0.00    -0.161 NA
ATOM      3  N   UNL     1      -0.438 -10.698  -1.770  0.00  0.00    -0.243 N 
ATOM      4  C   UNL     1      -0.516 -10.925  -3.223  0.00  0.00    +0.222 C 
ATOM      5  N   UNL     1      -0.463  -9.570  -3.796  0.00  0.00    -0.223 N 
ATOM      6  H   UNL     1      -0.449 -11.373  -1.073  0.00  0.00    +0.170 HD
ENDROOT
BRANCH   4   7
ATOM      7  C   UNL     1      -1.835 -11.610  -3.589  0.00  0.00    +0.197 C 
ATOM      8  C   UNL     1      -1.968 -12.937  -2.871  0.00  0.00    -0.017 C 
ATOM      9  C   UNL     1      -3.051 -12.803  -2.108  0.00  0.00    +0.065 C 
ATOM     10  C   UNL     1      -3.292 -14.083  -1.328  0.00  0.00    +0.057 C 
ATOM     11  C   UNL     1      -2.450 -15.159  -2.049  0.00  0.00    +0.011 C 
ATOM     12  C   UNL     1      -1.348 -14.301  -2.712  0.00  0.00    +0.035 C 
ATOM     13  N   UNL     1      -3.586 -11.564  -2.277  0.00  0.00    -0.158 NA
ATOM     14  N   UNL     1      -2.982 -10.841  -3.076  0.00  0.00    -0.176 NA
ENDBRANCH   4   7
BRANCH   5  15
ATOM     15  N   UNL     1      -0.508  -9.241  -5.122  0.00  0.00    -0.250 NA
ATOM     16  H   UNL     1      -0.452  -8.242  -5.249  0.00  0.00    +0.141 HD
ATOM     17  H   UNL     1       0.221  -9.713  -5.636  0.00  0.00    +0.141 HD
ENDBRANCH   5  15
BRANCH   1  18
ATOM     18  S   UNL     1      -0.255  -6.941  -2.895  0.00  0.00    -0.078 S 
BRANCH  18  19
ATOM     19  C   UNL     1      -0.134  -6.343  -1.187  0.00  0.00    +0.173 C 
BRANCH  19  21
ATOM     20  N   UNL     1       0.059  -4.170  -0.021  0.00  0.00    -0.285 N 
ATOM     21  C   UNL     1      -0.040  -4.839  -1.187  0.00  0.00    +0.227 C 
ATOM     22  O   UNL     1      -0.054  -4.230  -2.236  0.00  0.00    -0.275 OA
ATOM     23  H   UNL     1       0.135  -4.658   0.814  0.00  0.00    +0.155 HD
BRANCH  20  28
ATOM     24  C   UNL     1       0.025   1.503   0.005  0.00  0.00    +0.044 C 
ATOM     25  C   UNL     1       0.034  -0.004  -0.002  0.00  0.00    -0.050 A 
ATOM     26  C   UNL     1       0.632  -0.685  -1.046  0.00  0.00    +0.005 A 
ATOM     27  C   UNL     1       0.641  -2.066  -1.055  0.00  0.00    +0.024 A 
ATOM     28  C   UNL     1       0.051  -2.771  -0.014  0.00  0.00    +0.036 A 
ATOM     29  C   UNL     1      -0.548  -2.083   1.033  0.00  0.00    -0.029 A 
ATOM     30  C   UNL     1      -0.550  -0.702   1.039  0.00  0.00    +0.008 A 
ATOM     31  C   UNL     1      -1.190  -2.843   2.165  0.00  0.00    +0.045 C 
ENDBRANCH  20  28
ENDBRANCH  19  21
ENDBRANCH  18  19
ENDBRANCH   1  18
TORSDOF 6
