REMARK  Name = ZINC06550342
REMARK  4 active torsions:
REMARK  status: ('A' for Active; 'I' for Inactive)
REMARK    1  A    between atoms: C_1  and  O_2
REMARK    2  A    between atoms: O_2  and  C_3
REMARK    3  A    between atoms: C_6  and  C_9
REMARK    4  A    between atoms: C_11  and  C_22
REMARK                            x       y       z     vdW  Elec       q    Type
REMARK                         _______ _______ _______ _____ _____    ______ ____
ROOT
ATOM      1  C   UNL     1      -2.196  -0.593   1.013  0.00  0.00    +0.023 C 
ATOM      2  C   UNL     1      -1.216  -0.854   0.082  0.00  0.00    +0.068 C 
ATOM      3  C   UNL     1       0.148  -0.320   0.218  0.00  0.00    +0.156 C 
ATOM      4  N   UNL     1       1.162  -1.112   0.255  0.00  0.00    -0.241 NA
ATOM      5  C   UNL     1       1.113  -2.470   0.301  0.00  0.00    +0.086 A 
ATOM      6  C   UNL     1       2.024  -3.096   1.171  0.00  0.00    +0.029 A 
ATOM      7  C   UNL     1       2.068  -4.467   1.276  0.00  0.00    +0.002 A 
ATOM      8  C   UNL     1       1.209  -5.246   0.520  0.00  0.00    +0.002 A 
ATOM      9  C   UNL     1       0.308  -4.648  -0.334  0.00  0.00    +0.025 A 
ATOM     10  C   UNL     1       0.244  -3.257  -0.453  0.00  0.00    +0.059 A 
ATOM     11  N   UNL     1      -0.706  -2.760  -1.337  0.00  0.00    -0.280 N 
ATOM     12  C   UNL     1      -1.477  -1.690  -1.113  0.00  0.00    +0.250 C 
ATOM     13  O   UNL     1      -2.379  -1.409  -1.879  0.00  0.00    -0.270 OA
ATOM     14  H   UNL     1      -0.817  -3.223  -2.182  0.00  0.00    +0.155 HD
ENDROOT
BRANCH   1  18
ATOM     15  C   UNL     1      -5.937  -2.555   0.759  0.00  0.00    +0.120 A 
ATOM     16  C   UNL     1      -4.795  -3.176   0.266  0.00  0.00    +0.046 A 
ATOM     17  C   UNL     1      -3.580  -2.546   0.346  0.00  0.00    +0.011 A 
ATOM     18  C   UNL     1      -3.491  -1.272   0.925  0.00  0.00    -0.024 A 
ATOM     19  C   UNL     1      -4.646  -0.654   1.425  0.00  0.00    +0.011 A 
ATOM     20  C   UNL     1      -5.856  -1.292   1.335  0.00  0.00    +0.046 A 
BRANCH  15  22
ATOM     21  C   UNL     1      -8.271  -2.490   1.201  0.00  0.00    +0.277 C 
ATOM     22  O   UNL     1      -7.137  -3.184   0.676  0.00  0.00    -0.495 OA
ENDBRANCH  15  22
ENDBRANCH   1  18
BRANCH   3  23
ATOM     23  C   UNL     1       0.360   1.170   0.307  0.00  0.00    +0.435 C 
ATOM     24  F   UNL     1       1.728   1.439   0.430  0.00  0.00    -0.164 F 
ATOM     25  F   UNL     1      -0.133   1.782  -0.850  0.00  0.00    -0.164 F 
ATOM     26  F   UNL     1      -0.316   1.671   1.425  0.00  0.00    -0.164 F 
ENDBRANCH   3  23
TORSDOF 3
