REMARK  Name = ZINC00642794
REMARK  11 active torsions:
REMARK  status: ('A' for Active; 'I' for Inactive)
REMARK    1  A    between atoms: C_1  and  C_2
REMARK    2  A    between atoms: C_2  and  N_3
REMARK    3  A    between atoms: N_12  and  C_26
REMARK    4  A    between atoms: P_13  and  C_15
REMARK    5  A    between atoms: C_15  and  N_17
REMARK    6  A    between atoms: N_17  and  C_18
REMARK    7  A    between atoms: C_21  and  O_24
REMARK    8  A    between atoms: O_24  and  C_25
REMARK    9  A    between atoms: C_26  and  C_27
REMARK   10  A    between atoms: C_27  and  O_29
REMARK   11  A    between atoms: O_29  and  C_30
REMARK                            x       y       z     vdW  Elec       q    Type
REMARK                         _______ _______ _______ _____ _____    ______ ____
ROOT
ATOM      1  N   UNL     1       0.095  -2.305  -0.349  0.00  0.00    -0.229 N 
ATOM      2  C   UNL     1       0.713  -1.251   0.219  0.00  0.00    +0.255 C 
ATOM      3  O   UNL     1       1.809  -1.400   0.725  0.00  0.00    -0.270 OA
ATOM      4  C   UNL     1       0.081   0.079   0.236  0.00  0.00    +0.059 A 
ATOM      5  C   UNL     1       0.886   1.196   0.503  0.00  0.00    +0.015 A 
ATOM      6  C   UNL     1       0.342   2.459   0.499  0.00  0.00    +0.001 A 
ATOM      7  C   UNL     1      -1.007   2.638   0.234  0.00  0.00    +0.002 A 
ATOM      8  C   UNL     1      -1.814   1.550  -0.018  0.00  0.00    +0.024 A 
ATOM      9  C   UNL     1      -1.282   0.262  -0.017  0.00  0.00    +0.049 A 
ATOM     10  N   UNL     1      -2.141  -0.805  -0.251  0.00  0.00    -0.250 N 
ATOM     11  P   UNL     1      -1.360  -2.049  -1.075  0.00  0.00    +0.303 P 
ATOM     12  O   UNL     1      -2.176  -3.282  -1.008  0.00  0.00    -0.272 OA
ENDROOT
BRANCH   1  14
ATOM     13  C   UNL     1       1.851  -3.698  -1.328  0.00  0.00    +0.025 C 
ATOM     14  C   UNL     1       0.700  -3.639  -0.322  0.00  0.00    +0.114 C 
ENDBRANCH   1  14
BRANCH  11  15
ATOM     15  C   UNL     1      -1.106  -1.573  -2.807  0.00  0.00    +0.149 C 
ATOM     16  S   UNL     1      -1.446  -0.086  -3.286  0.00  0.00    -0.028 S 
BRANCH  15  17
ATOM     17  N   UNL     1      -0.631  -2.473  -3.690  0.00  0.00    -0.303 N 
ATOM     18  H   UNL     1      -0.482  -3.392  -3.415  0.00  0.00    +0.153 HD
BRANCH  17  19
ATOM     19  C   UNL     1      -0.352  -2.083  -5.006  0.00  0.00    +0.032 A 
ATOM     20  C   UNL     1      -1.269  -1.316  -5.713  0.00  0.00    +0.027 A 
ATOM     21  C   UNL     1      -0.991  -0.927  -7.008  0.00  0.00    +0.047 A 
ATOM     22  C   UNL     1       0.200  -1.312  -7.607  0.00  0.00    +0.120 A 
ATOM     23  C   UNL     1       1.114  -2.083  -6.904  0.00  0.00    +0.047 A 
ATOM     24  C   UNL     1       0.840  -2.468  -5.607  0.00  0.00    +0.027 A 
BRANCH  22  25
ATOM     25  O   UNL     1       0.471  -0.933  -8.885  0.00  0.00    -0.495 OA
ATOM     26  C   UNL     1      -0.515  -0.141  -9.549  0.00  0.00    +0.277 C 
ENDBRANCH  22  25
ENDBRANCH  17  19
ENDBRANCH  15  17
ENDBRANCH  11  15
BRANCH  10  27
ATOM     27  C   UNL     1      -3.341  -0.365  -0.975  0.00  0.00    +0.234 C 
BRANCH  27  28
ATOM     28  C   UNL     1      -4.491  -0.237  -0.010  0.00  0.00    +0.325 C 
ATOM     29  O   UNL     1      -4.308  -0.400   1.173  0.00  0.00    -0.249 OA
BRANCH  28  30
ATOM     30  O   UNL     1      -5.719   0.058  -0.465  0.00  0.00    -0.467 OA
ATOM     31  C   UNL     1      -6.779   0.165   0.521  0.00  0.00    +0.280 C 
ENDBRANCH  28  30
ENDBRANCH  27  28
ENDBRANCH  10  27
TORSDOF 8
