REMARK  Name = ZINC54642438
REMARK  12 active torsions:
REMARK  status: ('A' for Active; 'I' for Inactive)
REMARK    1  A    between atoms: C_1  and  C_2
REMARK    2  A    between atoms: C_2  and  C_3
REMARK    3  A    between atoms: C_2  and  C_4
REMARK    4  A    between atoms: C_4  and  C_5
REMARK    5  A    between atoms: C_5  and  O_6
REMARK    6  A    between atoms: O_6  and  C_7
REMARK    7  A    between atoms: C_10  and  C_13
REMARK    8  A    between atoms: C_18  and  C_22
REMARK    9  A    between atoms: C_18  and  C_23
REMARK   10  A    between atoms: C_28  and  S_30
REMARK   11  A    between atoms: S_30  and  C_31
REMARK   12  A    between atoms: C_31  and  C_32
REMARK                            x       y       z     vdW  Elec       q    Type
REMARK                         _______ _______ _______ _____ _____    ______ ____
ROOT
ATOM      1  C   UNL     1      -1.698   0.491   8.658  0.00  0.00    +0.175 C 
ATOM      2  C   UNL     1      -1.993  -0.812   9.368  0.00  0.00    +0.041 C 
ATOM      3  C   UNL     1      -1.253  -1.243  10.412  0.00  0.00    +0.020 C 
ATOM      4  C   UNL     1      -1.560  -2.558  11.090  0.00  0.00    +0.058 C 
ATOM      5  C   UNL     1      -3.063  -2.837  11.014  0.00  0.00    -0.023 C 
ATOM      6  C   UNL     1      -3.474  -2.868   9.539  0.00  0.00    +0.086 C 
ATOM      7  C   UNL     1      -3.082  -1.567   8.895  0.00  0.00    +0.164 C 
ATOM      8  O   UNL     1      -3.720  -1.158   7.945  0.00  0.00    -0.292 OA
ATOM      9  C   UNL     1      -3.369  -4.188  11.663  0.00  0.00    +0.011 C 
ATOM     10  C   UNL     1      -3.830  -1.730  11.740  0.00  0.00    +0.011 C 
ATOM     11  N   UNL     1      -0.200  -0.511  10.905  0.00  0.00    -0.287 N 
ATOM     12  C   UNL     1      -0.083   0.811  10.508  0.00  0.00    +0.219 A 
ATOM     13  N   UNL     1      -0.783   1.296   9.457  0.00  0.00    -0.220 N 
ATOM     14  N   UNL     1      -0.439   2.642   9.339  0.00  0.00    -0.141 NA
ATOM     15  C   UNL     1       0.432   2.894  10.293  0.00  0.00    +0.211 A 
ATOM     16  N   UNL     1       0.643   1.780  10.996  0.00  0.00    -0.187 NA
ATOM     17  H   UNL     1       0.443  -0.909  11.513  0.00  0.00    +0.155 HD
ENDROOT
BRANCH   1  21
ATOM     18  C   UNL     1       0.083  -0.335   4.862  0.00  0.00    +0.121 A 
ATOM     19  C   UNL     1      -1.116   0.359   4.931  0.00  0.00    +0.046 A 
ATOM     20  C   UNL     1      -1.690   0.625   6.159  0.00  0.00    +0.009 A 
ATOM     21  C   UNL     1      -1.070   0.200   7.319  0.00  0.00    -0.018 A 
ATOM     22  C   UNL     1       0.125  -0.492   7.254  0.00  0.00    +0.009 A 
ATOM     23  C   UNL     1       0.700  -0.765   6.028  0.00  0.00    +0.046 A 
BRANCH  18  24
ATOM     24  O   UNL     1       0.650  -0.597   3.655  0.00  0.00    -0.492 OA
BRANCH  24  25
ATOM     25  C   UNL     1      -0.042  -0.124   2.497  0.00  0.00    +0.229 C 
BRANCH  25  26
ATOM     26  C   UNL     1       0.742  -0.511   1.242  0.00  0.00    +0.044 C 
BRANCH  26  28
ATOM     27  C   UNL     1      -0.019   1.526   0.010  0.00  0.00    +0.007 C 
ATOM     28  C   UNL     1       0.002  -0.004   0.002  0.00  0.00    -0.014 C 
ATOM     29  C   UNL     1       0.718  -0.497  -1.257  0.00  0.00    +0.007 C 
ENDBRANCH  26  28
ENDBRANCH  25  26
ENDBRANCH  24  25
ENDBRANCH  18  24
ENDBRANCH   1  21
BRANCH  15  30
ATOM     30  S   UNL     1       1.196   4.453  10.594  0.00  0.00    -0.080 S 
BRANCH  30  31
ATOM     31  C   UNL     1       2.273   4.146  12.021  0.00  0.00    +0.112 C 
BRANCH  31  32
ATOM     32  C   UNL     1       2.996   5.416  12.388  0.00  0.00    -0.037 A 
ATOM     33  C   UNL     1       4.219   5.705  11.814  0.00  0.00    +0.004 A 
ATOM     34  C   UNL     1       4.883   6.870  12.150  0.00  0.00    +0.000 A 
ATOM     35  C   UNL     1       4.322   7.747  13.061  0.00  0.00    +0.000 A 
ATOM     36  C   UNL     1       3.098   7.457  13.635  0.00  0.00    +0.000 A 
ATOM     37  C   UNL     1       2.433   6.294  13.295  0.00  0.00    +0.004 A 
ENDBRANCH  31  32
ENDBRANCH  30  31
ENDBRANCH  15  30
TORSDOF 8
