REMARK  Name = ZINC08809824
REMARK  7 active torsions:
REMARK  status: ('A' for Active; 'I' for Inactive)
REMARK    1  A    between atoms: C_1  and  C_2
REMARK    2  A    between atoms: C_5  and  N_8
REMARK    3  A    between atoms: C_18  and  C_21
REMARK    4  A    between atoms: C_21  and  C_22
REMARK    5  A    between atoms: N_28  and  N_29
REMARK    6  A    between atoms: C_30  and  C_31
REMARK    7  A    between atoms: C_36  and  O_37
REMARK                            x       y       z     vdW  Elec       q    Type
REMARK                         _______ _______ _______ _____ _____    ______ ____
ROOT
ATOM      1  N   UNL     1       0.441  -4.066  -0.062  0.00  0.00    -0.283 N 
ATOM      2  C   UNL     1       0.698  -4.742   1.115  0.00  0.00    +0.225 A 
ATOM      3  N   UNL     1       0.609  -4.108   2.280  0.00  0.00    -0.179 NA
ATOM      4  C   UNL     1       0.857  -4.759   3.412  0.00  0.00    +0.241 A 
ATOM      5  N   UNL     1       1.193  -6.046   3.379  0.00  0.00    -0.180 NA
ATOM      6  C   UNL     1       1.282  -6.680   2.215  0.00  0.00    +0.224 A 
ATOM      7  N   UNL     1       1.029  -6.030   1.083  0.00  0.00    -0.181 NA
ATOM      8  N   UNL     1       1.631  -8.015   2.180  0.00  0.00    -0.299 N 
ATOM      9  C   UNL     1       1.739  -8.728   0.900  0.00  0.00    +0.108 C 
ATOM     10  C   UNL     1       3.118  -9.390   0.820  0.00  0.00    +0.023 C 
ATOM     11  C   UNL     1       3.326 -10.275   2.051  0.00  0.00    -0.004 C 
ATOM     12  C   UNL     1       3.278  -9.412   3.315  0.00  0.00    +0.023 C 
ATOM     13  C   UNL     1       1.907  -8.748   3.423  0.00  0.00    +0.108 C 
ATOM     14  N   UNL     1       0.765  -4.101   4.622  0.00  0.00    -0.205 N 
ATOM     15  H   UNL     1       0.465  -4.538  -0.908  0.00  0.00    +0.155 HD
ATOM     16  H   UNL     1       0.606  -3.144   4.642  0.00  0.00    +0.177 HD
ENDROOT
BRANCH   1  21
ATOM     17  C   UNL     1      -0.753   1.478   0.058  0.00  0.00    +0.044 C 
ATOM     18  C   UNL     1      -0.436   0.005   0.026  0.00  0.00    -0.050 A 
ATOM     19  C   UNL     1       0.262  -0.527  -1.042  0.00  0.00    +0.005 A 
ATOM     20  C   UNL     1       0.555  -1.876  -1.074  0.00  0.00    +0.023 A 
ATOM     21  C   UNL     1       0.147  -2.699  -0.032  0.00  0.00    +0.034 A 
ATOM     22  C   UNL     1      -0.554  -2.161   1.039  0.00  0.00    +0.023 A 
ATOM     23  C   UNL     1      -0.839  -0.810   1.068  0.00  0.00    +0.005 A 
ENDBRANCH   1  21
BRANCH  14  24
ATOM     24  N   UNL     1       0.900  -4.814   5.820  0.00  0.00    -0.187 NA
ATOM     25  C   UNL     1       0.873  -4.186   6.956  0.00  0.00    +0.142 C 
BRANCH  25  26
ATOM     26  C   UNL     1       1.074  -4.928   8.213  0.00  0.00    +0.036 A 
ATOM     27  C   UNL     1       1.062  -4.254   9.436  0.00  0.00    +0.013 A 
ATOM     28  C   UNL     1       1.251  -4.954  10.609  0.00  0.00    +0.001 A 
ATOM     29  C   UNL     1       1.453  -6.323  10.580  0.00  0.00    +0.004 A 
ATOM     30  C   UNL     1       1.467  -7.002   9.376  0.00  0.00    +0.046 A 
ATOM     31  C   UNL     1       1.274  -6.315   8.189  0.00  0.00    +0.125 A 
BRANCH  31  32
ATOM     32  O   UNL     1       1.282  -6.982   7.006  0.00  0.00    -0.506 OA
ATOM     33  H   UNL     1       2.152  -7.027   6.586  0.00  0.00    +0.292 HD
ENDBRANCH  31  32
ENDBRANCH  25  26
ENDBRANCH  14  24
BRANCH  11  34
ATOM     34  C   UNL     1       4.689 -10.966   1.958  0.00  0.00    +0.038 C 
BRANCH  34  35
ATOM     35  C   UNL     1       4.843 -11.929   3.106  0.00  0.00    -0.047 A 
ATOM     36  C   UNL     1       5.395 -11.500   4.299  0.00  0.00    +0.003 A 
ATOM     37  C   UNL     1       5.537 -12.384   5.352  0.00  0.00    +0.000 A 
ATOM     38  C   UNL     1       5.126 -13.697   5.213  0.00  0.00    +0.000 A 
ATOM     39  C   UNL     1       4.573 -14.125   4.021  0.00  0.00    +0.000 A 
ATOM     40  C   UNL     1       4.427 -13.240   2.969  0.00  0.00    +0.003 A 
ENDBRANCH  34  35
ENDBRANCH  11  34
TORSDOF 6
