REMARK  Name = ZINC37524110
REMARK  7 active torsions:
REMARK  status: ('A' for Active; 'I' for Inactive)
REMARK    1  A    between atoms: C_1  and  C_2
REMARK    2  A    between atoms: C_2  and  C_3
REMARK    3  A    between atoms: C_2  and  N_4
REMARK    4  A    between atoms: C_5  and  C_7
REMARK    5  A    between atoms: C_12  and  N_13
REMARK    6  A    between atoms: C_16  and  N_19
REMARK    7  A    between atoms: C_20  and  C_22
REMARK                            x       y       z     vdW  Elec       q    Type
REMARK                         _______ _______ _______ _____ _____    ______ ____
ROOT
ATOM      1  N   UNL     1      -2.273  -4.388  -1.323  0.00  0.00    -0.329 N 
ATOM      2  C   UNL     1      -1.707  -5.404  -0.426  0.00  0.00    +0.107 C 
ATOM      3  C   UNL     1      -0.188  -5.215  -0.360  0.00  0.00    +0.041 C 
ATOM      4  C   UNL     1       0.386  -5.239  -1.779  0.00  0.00    +0.076 C 
ATOM      5  C   UNL     1      -0.210  -4.088  -2.592  0.00  0.00    +0.041 C 
ATOM      6  C   UNL     1      -1.733  -4.268  -2.684  0.00  0.00    +0.107 C 
ENDROOT
BRANCH   1  12
ATOM      7  C   UNL     1      -4.636  -3.981  -1.000  0.00  0.00    +0.058 A 
ATOM      8  C   UNL     1      -5.662  -3.140  -0.560  0.00  0.00    +0.015 A 
ATOM      9  C   UNL     1      -5.358  -1.904  -0.032  0.00  0.00    +0.001 A 
ATOM     10  C   UNL     1      -4.040  -1.489   0.065  0.00  0.00    +0.002 A 
ATOM     11  C   UNL     1      -3.016  -2.307  -0.365  0.00  0.00    +0.024 A 
ATOM     12  C   UNL     1      -3.302  -3.560  -0.895  0.00  0.00    +0.042 A 
BRANCH   7  14
ATOM     13  N   UNL     1      -6.224  -5.757  -1.552  0.00  0.00    -0.309 N 
ATOM     14  C   UNL     1      -4.954  -5.304  -1.567  0.00  0.00    +0.246 C 
ATOM     15  O   UNL     1      -4.071  -5.988  -2.047  0.00  0.00    -0.270 OA
ATOM     16  H   UNL     1      -6.928  -5.211  -1.168  0.00  0.00    +0.149 HD
BRANCH  13  18
ATOM     17  C   UNL     1      -7.811  -7.615  -1.459  0.00  0.00    +0.027 C 
ATOM     18  C   UNL     1      -6.539  -7.072  -2.114  0.00  0.00    +0.067 C 
ATOM     19  C   UNL     1      -6.759  -6.942  -3.623  0.00  0.00    +0.027 C 
ENDBRANCH  13  18
ENDBRANCH   7  14
ENDBRANCH   1  12
BRANCH   4  20
ATOM     20  N   UNL     1       1.842  -5.090  -1.718  0.00  0.00    -0.312 N 
ATOM     21  C   UNL     1       2.611  -5.568  -2.717  0.00  0.00    +0.216 C 
ATOM     22  O   UNL     1       2.096  -6.120  -3.667  0.00  0.00    -0.276 OA
ATOM     23  H   UNL     1       2.254  -4.649  -0.959  0.00  0.00    +0.149 HD
BRANCH  21  24
ATOM     24  C   UNL     1       4.109  -5.415  -2.655  0.00  0.00    +0.075 C 
ATOM     25  C   UNL     1       4.468  -3.929  -2.590  0.00  0.00    +0.013 C 
ATOM     26  C   UNL     1       5.989  -3.775  -2.526  0.00  0.00    +0.001 C 
ATOM     27  C   UNL     1       6.617  -4.397  -3.775  0.00  0.00    +0.000 C 
ATOM     28  C   UNL     1       6.258  -5.883  -3.840  0.00  0.00    +0.001 C 
ATOM     29  C   UNL     1       4.737  -6.038  -3.903  0.00  0.00    +0.013 C 
ENDBRANCH  21  24
ENDBRANCH   4  20
TORSDOF 5
