REMARK  Name = ZINC50361996
REMARK  8 active torsions:
REMARK  status: ('A' for Active; 'I' for Inactive)
REMARK    1  A    between atoms: C_1  and  C_2
REMARK    2  A    between atoms: C_2  and  N_3
REMARK    3  A    between atoms: N_3  and  C_4
REMARK    4  A    between atoms: N_3  and  C_11
REMARK    5  A    between atoms: C_8  and  C_10
REMARK    6  A    between atoms: C_11  and  C_13
REMARK    7  A    between atoms: C_11  and  C_15
REMARK    8  A    between atoms: C_13  and  N_14
REMARK                            x       y       z     vdW  Elec       q    Type
REMARK                         _______ _______ _______ _____ _____    ______ ____
ROOT
ATOM      1  C   UNL     1       2.267  -0.331   1.109  0.00  0.00    +0.122 C 
ENDROOT
BRANCH   1   2
ATOM      2  C   UNL     1       3.097  -1.516   1.529  0.00  0.00    +0.126 A 
ATOM      3  C   UNL     1       4.283  -1.871   1.003  0.00  0.00    +0.063 A 
ATOM      4  C   UNL     1       4.704  -3.034   1.689  0.00  0.00    +0.070 A 
ATOM      5  C   UNL     1       3.748  -3.321   2.594  0.00  0.00    +0.184 A 
ATOM      6  O   UNL     1       2.780  -2.395   2.495  0.00  0.00    -0.450 OA
ATOM      7 BR   UNL     1       3.768  -4.775   3.802  0.00  0.00    -0.007 Br
ATOM      8 BR   UNL     1       6.301  -4.002   1.393  0.00  0.00    -0.046 Br
ENDBRANCH   1   2
BRANCH   1   9
ATOM      9  N   UNL     1       0.861  -0.576   1.442  0.00  0.00    -0.322 N 
BRANCH   9  10
ATOM     10  C   UNL     1       0.478  -0.741   2.775  0.00  0.00    +0.030 A 
ATOM     11  C   UNL     1       1.440  -0.788   3.775  0.00  0.00    +0.023 A 
ATOM     12  C   UNL     1       1.058  -0.950   5.092  0.00  0.00    +0.002 A 
ATOM     13  C   UNL     1      -0.282  -1.066   5.415  0.00  0.00    +0.003 A 
ATOM     14  C   UNL     1      -1.242  -1.020   4.422  0.00  0.00    -0.049 A 
ATOM     15  C   UNL     1      -0.867  -0.852   3.103  0.00  0.00    +0.026 A 
ATOM     16  C   UNL     1      -2.701  -1.148   4.779  0.00  0.00    +0.044 C 
ENDBRANCH   9  10
BRANCH   9  18
ATOM     17  C   UNL     1      -0.707   0.748   0.112  0.00  0.00    +0.024 C 
ATOM     18  C   UNL     1      -0.142  -0.649   0.377  0.00  0.00    +0.102 C 
ENDBRANCH   9  18
ENDBRANCH   1   9
BRANCH   1  19
ATOM     19  C   UNL     1       2.754   0.919   1.844  0.00  0.00    -0.056 C 
BRANCH  19  20
ATOM     20  N   UNL     1       1.907   2.063   1.481  0.00  0.00    +0.380 N 
ATOM     21  H   UNL     1       2.229   2.887   1.966  0.00  0.00    -0.090 HD
ATOM     22  H   UNL     1       1.959   2.217   0.485  0.00  0.00    -0.090 HD
ATOM     23  H   UNL     1       0.952   1.870   1.742  0.00  0.00    -0.090 HD
ENDBRANCH  19  20
ENDBRANCH   1  19
TORSDOF 6
