REMARK  Name = ZINC39252895
REMARK  7 active torsions:
REMARK  status: ('A' for Active; 'I' for Inactive)
REMARK    1  A    between atoms: C_1  and  C_2
REMARK    2  A    between atoms: C_2  and  C_3
REMARK    3  A    between atoms: C_2  and  C_4
REMARK    4  A    between atoms: C_2  and  C_5
REMARK    5  A    between atoms: N_15  and  C_18
REMARK    6  A    between atoms: C_21  and  O_24
REMARK    7  A    between atoms: O_24  and  C_25
REMARK                            x       y       z     vdW  Elec       q    Type
REMARK                         _______ _______ _______ _____ _____    ______ ____
ROOT
ATOM      1  C   UNL     1       0.944   1.201  -0.797  0.00  0.00    -0.004 C 
ATOM      2  C   UNL     1       0.259   1.818  -2.014  0.00  0.00    +0.008 C 
ATOM      3  C   UNL     1       0.455   0.926  -3.248  0.00  0.00    +0.033 C 
ATOM      4  C   UNL     1       1.957   0.682  -3.376  0.00  0.00    -0.042 C 
ATOM      5  C   UNL     1       2.673   0.930  -4.469  0.00  0.00    +0.067 C 
ATOM      6  C   UNL     1       4.157   0.822  -4.378  0.00  0.00    +0.101 C 
ATOM      7  N   UNL     1       4.949   1.088  -5.385  0.00  0.00    -0.185 NA
ATOM      8  C   UNL     1       4.387   1.469  -6.544  0.00  0.00    +0.169 C 
ATOM      9  S   UNL     1       5.431   1.812  -7.857  0.00  0.00    -0.016 S 
ATOM     10  N   UNL     1       3.072   1.600  -6.747  0.00  0.00    -0.216 N 
ATOM     11  C   UNL     1       2.133   1.369  -5.798  0.00  0.00    +0.259 C 
ATOM     12  O   UNL     1       0.943   1.506  -6.008  0.00  0.00    -0.269 OA
ATOM     13  S   UNL     1       4.467   0.288  -2.724  0.00  0.00    -0.100 S 
ATOM     14  C   UNL     1       2.725   0.142  -2.169  0.00  0.00    +0.080 C 
ATOM     15  C   UNL     1       2.458   1.106  -1.011  0.00  0.00    +0.023 C 
ENDROOT
BRANCH  10  16
ATOM     16  C   UNL     1       2.639   2.002  -8.019  0.00  0.00    +0.044 A 
ATOM     17  C   UNL     1       2.488   3.352  -8.307  0.00  0.00    +0.027 A 
ATOM     18  C   UNL     1       2.061   3.746  -9.559  0.00  0.00    +0.047 A 
ATOM     19  C   UNL     1       1.783   2.795 -10.530  0.00  0.00    +0.120 A 
ATOM     20  C   UNL     1       1.934   1.446 -10.242  0.00  0.00    +0.047 A 
ATOM     21  C   UNL     1       2.366   1.050  -8.992  0.00  0.00    +0.027 A 
BRANCH  19  22
ATOM     22  O   UNL     1       1.363   3.184 -11.763  0.00  0.00    -0.495 OA
ATOM     23  C   UNL     1       1.096   2.151 -12.713  0.00  0.00    +0.277 C 
ENDBRANCH  19  22
ENDBRANCH  10  16
BRANCH   1  25
ATOM     24  C   UNL     1       1.223   3.473   0.202  0.00  0.00    +0.011 C 
ATOM     25  C   UNL     1       0.663   2.068   0.431  0.00  0.00    -0.035 C 
ATOM     26  C   UNL     1       1.332   1.446   1.658  0.00  0.00    +0.011 C 
ATOM     27  C   UNL     1      -0.847   2.152   0.661  0.00  0.00    +0.011 C 
ENDBRANCH   1  25
TORSDOF 3
