REMARK  Name = ZINC20681688
REMARK  5 active torsions:
REMARK  status: ('A' for Active; 'I' for Inactive)
REMARK    1  A    between atoms: N_9  and  S_10
REMARK    2  A    between atoms: S_10  and  C_13
REMARK    3  A    between atoms: C_26  and  C_29
REMARK    4  A    between atoms: C_32  and  O_36
REMARK    5  A    between atoms: C_34  and  O_35
REMARK                            x       y       z     vdW  Elec       q    Type
REMARK                         _______ _______ _______ _____ _____    ______ ____
ROOT
ATOM      1  C   UNL     1       2.169  -2.399  -1.714  0.00  0.00    +0.109 A 
ATOM      2  C   UNL     1       3.356  -2.167  -2.385  0.00  0.00    +0.030 A 
ATOM      3  C   UNL     1       3.491  -2.547  -3.704  0.00  0.00    +0.025 A 
ATOM      4  C   UNL     1       2.439  -3.165  -4.368  0.00  0.00    +0.031 A 
ATOM      5  C   UNL     1       1.237  -3.386  -3.686  0.00  0.00    -0.018 A 
ATOM      6  C   UNL     1       1.115  -3.013  -2.365  0.00  0.00    +0.034 A 
ATOM      7  C   UNL     1       0.133  -4.020  -4.438  0.00  0.00    +0.049 C 
ATOM      8  C   UNL     1      -0.935  -4.799  -3.761  0.00  0.00    -0.023 C 
ATOM      9  C   UNL     1      -1.353  -5.751  -4.587  0.00  0.00    -0.030 C 
ATOM     10  C   UNL     1      -0.556  -5.699  -5.892  0.00  0.00    +0.033 C 
ATOM     11  C   UNL     1       0.754  -5.051  -5.427  0.00  0.00    +0.029 C 
ATOM     12  C   UNL     1       1.516  -4.223  -6.447  0.00  0.00    +0.108 C 
ATOM     13  N   UNL     1       2.611  -3.572  -5.697  0.00  0.00    -0.336 N 
ATOM     14  H   UNL     1       3.584  -3.400  -6.181  0.00  0.00    +0.147 HD
ENDROOT
BRANCH  12  15
ATOM     15  C   UNL     1       2.081  -5.115  -7.523  0.00  0.00    +0.015 A 
ATOM     16  C   UNL     1       3.380  -5.575  -7.427  0.00  0.00    +0.012 A 
ATOM     17  C   UNL     1       3.900  -6.393  -8.411  0.00  0.00    +0.046 A 
ATOM     18  C   UNL     1       3.119  -6.754  -9.500  0.00  0.00    +0.120 A 
ATOM     19  C   UNL     1       1.815  -6.294  -9.598  0.00  0.00    +0.091 A 
ATOM     20  C   UNL     1       1.293  -5.478  -8.606  0.00  0.00    +0.125 A 
BRANCH  20  21
ATOM     21  O   UNL     1       0.014  -5.029  -8.698  0.00  0.00    -0.506 OA
ATOM     22  H   UNL     1      -0.610  -5.317  -9.557  0.00  0.00    +0.292 HD
ENDBRANCH  20  21
BRANCH  18  23
ATOM     23  O   UNL     1       3.631  -7.558 -10.468  0.00  0.00    -0.507 OA
ATOM     24  H   UNL     1       3.011  -7.845 -11.330  0.00  0.00    +0.292 HD
ENDBRANCH  18  23
ENDBRANCH  12  15
BRANCH   1  25
ATOM     25  S   UNL     1       2.002  -1.919  -0.026  0.00  0.00    +0.075 S 
ATOM     26  O   UNL     1       3.316  -1.865   0.512  0.00  0.00    -0.150 OA
ATOM     27  O   UNL     1       0.984  -2.739   0.530  0.00  0.00    -0.150 OA
BRANCH  25  36
ATOM     28  C   UNL     1       3.416   3.286  -0.014  0.00  0.00    +0.000 A 
ATOM     29  C   UNL     1       4.196   2.144  -0.028  0.00  0.00    +0.002 A 
ATOM     30  C   UNL     1       3.603   0.899  -0.027  0.00  0.00    +0.025 A 
ATOM     31  C   UNL     1       2.212   0.782  -0.015  0.00  0.00    +0.054 A 
ATOM     32  C   UNL     1       1.440   1.933  -0.001  0.00  0.00    -0.023 A 
ATOM     33  C   UNL     1       2.038   3.178  -0.001  0.00  0.00    +0.005 A 
ATOM     34  C   UNL     1      -0.019   1.533   0.011  0.00  0.00    +0.058 C 
ATOM     35  C   UNL     1       0.002  -0.004   0.002  0.00  0.00    +0.136 C 
ATOM     36  N   UNL     1       1.421  -0.369  -0.013  0.00  0.00    -0.202 N 
ENDBRANCH  25  36
ENDBRANCH   1  25
TORSDOF 5
