REMARK  Name = ZINC43208898
REMARK  10 active torsions:
REMARK  status: ('A' for Active; 'I' for Inactive)
REMARK    1  A    between atoms: C_1  and  C_2
REMARK    2  A    between atoms: C_2  and  C_3
REMARK    3  A    between atoms: C_3  and  C_5
REMARK    4  A    between atoms: C_3  and  C_6
REMARK    5  A    between atoms: C_6  and  C_8
REMARK    6  A    between atoms: C_6  and  N_11
REMARK    7  A    between atoms: C_12  and  C_14
REMARK    8  A    between atoms: C_17  and  C_20
REMARK    9  A    between atoms: C_20  and  O_21
REMARK   10  A    between atoms: O_21  and  C_22
REMARK                            x       y       z     vdW  Elec       q    Type
REMARK                         _______ _______ _______ _____ _____    ______ ____
ROOT
ATOM      1  C   UNL     1       0.947  -5.022   3.571  0.00  0.00    +0.037 A 
ATOM      2  C   UNL     1       1.850  -4.635   4.562  0.00  0.00    +0.013 A 
ATOM      3  C   UNL     1       2.116  -5.483   5.617  0.00  0.00    +0.008 A 
ATOM      4  C   UNL     1       1.491  -6.715   5.694  0.00  0.00    -0.010 A 
ATOM      5  C   UNL     1       0.595  -7.104   4.714  0.00  0.00    +0.008 A 
ATOM      6  C   UNL     1       0.315  -6.263   3.657  0.00  0.00    +0.013 A 
ENDROOT
BRANCH   1   8
ATOM      7  N   UNL     1       1.267  -2.920   2.357  0.00  0.00    -0.300 N 
ATOM      8  C   UNL     1       0.656  -4.118   2.438  0.00  0.00    +0.245 C 
ATOM      9  O   UNL     1      -0.135  -4.455   1.579  0.00  0.00    -0.270 OA
ATOM     10  H   UNL     1       1.898  -2.650   3.043  0.00  0.00    +0.150 HD
BRANCH   7  11
ATOM     11  C   UNL     1       0.979  -2.024   1.234  0.00  0.00    +0.162 C 
BRANCH  11  12
ATOM     12  C   UNL     1       1.855  -2.388   0.064  0.00  0.00    +0.231 C 
ATOM     13  O   UNL     1       2.883  -3.005   0.245  0.00  0.00    -0.274 OA
ATOM     14  N   UNL     1       1.497  -2.027  -1.184  0.00  0.00    -0.328 N 
ATOM     15  H   UNL     1       0.641  -1.596  -1.338  0.00  0.00    +0.145 HD
ATOM     16  H   UNL     1       2.094  -2.198  -1.929  0.00  0.00    +0.145 HD
ENDBRANCH  11  12
BRANCH  11  17
ATOM     17  C   UNL     1       1.258  -0.578   1.651  0.00  0.00    +0.015 C 
ATOM     18  C   UNL     1       2.707  -0.455   2.126  0.00  0.00    +0.010 C 
BRANCH  17  20
ATOM     19  C   UNL     1       0.497   1.301   3.111  0.00  0.00    +0.004 C 
ATOM     20  C   UNL     1       0.313  -0.183   2.787  0.00  0.00    +0.002 C 
ENDBRANCH  17  20
ENDBRANCH  11  17
ENDBRANCH   7  11
ENDBRANCH   1   8
BRANCH   4  21
ATOM     21  C   UNL     1       1.788  -7.636   6.849  0.00  0.00    +0.264 C 
BRANCH  21  22
ATOM     22  O   UNL     1       0.874  -7.372   7.915  0.00  0.00    -0.485 OA
BRANCH  22  23
ATOM     23  C   UNL     1       1.006  -8.122   9.040  0.00  0.00    +0.147 A 
ATOM     24  C   UNL     1       1.982  -9.074   9.120  0.00  0.00    +0.049 A 
ATOM     25  C   UNL     1       2.133  -9.853  10.264  0.00  0.00    +0.024 A 
ATOM     26  C   UNL     1       1.310  -9.688  11.338  0.00  0.00    +0.050 A 
ATOM     27  C   UNL     1       0.294  -8.718  11.293  0.00  0.00    +0.022 A 
ATOM     28  C   UNL     1       0.139  -7.918  10.134  0.00  0.00    +0.114 A 
ATOM     29  N   UNL     1      -0.822  -6.991  10.088  0.00  0.00    -0.251 NA
ATOM     30  C   UNL     1      -1.631  -6.798  11.102  0.00  0.00    +0.111 A 
ATOM     31  C   UNL     1      -1.530  -7.545  12.273  0.00  0.00    +0.020 A 
ATOM     32  C   UNL     1      -0.576  -8.517  12.381  0.00  0.00    +0.013 A 
ATOM     33 CL   UNL     1       1.515 -10.671  12.754  0.00  0.00    -0.083 Cl
ENDBRANCH  22  23
ENDBRANCH  21  22
ENDBRANCH   4  21
TORSDOF 8
