REMARK  Name = ZINC39835914
REMARK  11 active torsions:
REMARK  status: ('A' for Active; 'I' for Inactive)
REMARK    1  A    between atoms: C_1  and  C_2
REMARK    2  A    between atoms: C_6  and  O_8
REMARK    3  A    between atoms: O_8  and  C_9
REMARK    4  A    between atoms: C_10  and  C_21
REMARK    5  A    between atoms: C_17  and  C_20
REMARK    6  A    between atoms: N_25  and  C_29
REMARK    7  A    between atoms: C_29  and  C_30
REMARK    8  A    between atoms: C_30  and  C_31
REMARK    9  A    between atoms: C_31  and  C_32
REMARK   10  A    between atoms: C_32  and  C_33
REMARK   11  A    between atoms: C_33  and  C_34
REMARK                            x       y       z     vdW  Elec       q    Type
REMARK                         _______ _______ _______ _____ _____    ______ ____
ROOT
ATOM      1  C   UNL     1       0.340  -3.829   2.384  0.00  0.00    +0.235 A 
ATOM      2  C   UNL     1       0.018  -4.715   3.436  0.00  0.00    +0.103 A 
ATOM      3  C   UNL     1      -0.132  -6.091   3.134  0.00  0.00    +0.269 A 
ATOM      4  O   UNL     1      -0.409  -6.891   4.011  0.00  0.00    -0.266 OA
ATOM      5  N   UNL     1       0.038  -6.501   1.859  0.00  0.00    -0.267 N 
ATOM      6  C   UNL     1      -0.104  -7.822   1.558  0.00  0.00    +0.096 A 
ATOM      7  C   UNL     1       0.059  -8.265   0.291  0.00  0.00    +0.019 A 
ATOM      8  C   UNL     1       0.378  -7.363  -0.734  0.00  0.00    +0.008 A 
ATOM      9  C   UNL     1       0.522  -6.039  -0.443  0.00  0.00    -0.007 A 
ATOM     10  C   UNL     1       0.348  -5.597   0.881  0.00  0.00    +0.147 A 
ATOM     11  N   UNL     1       0.487  -4.299   1.155  0.00  0.00    -0.194 NA
ATOM     12  C   UNL     1       0.865  -5.056  -1.532  0.00  0.00    +0.047 C 
ENDROOT
BRANCH   2  13
ATOM     13  C   UNL     1      -0.150  -4.240   4.758  0.00  0.00    +0.039 C 
ATOM     14  C   UNL     1      -1.067  -3.265   5.021  0.00  0.00    +0.077 C 
ATOM     15  C   UNL     1      -2.034  -2.674   4.158  0.00  0.00    +0.258 C 
ATOM     16  O   UNL     1      -2.133  -3.024   2.995  0.00  0.00    -0.269 OA
ATOM     17  N   UNL     1      -2.820  -1.735   4.655  0.00  0.00    -0.255 N 
ATOM     18  C   UNL     1      -2.710  -1.347   5.945  0.00  0.00    +0.121 C 
ATOM     19  S   UNL     1      -3.613  -0.163   6.791  0.00  0.00    -0.027 S 
ATOM     20  S   UNL     1      -1.389  -2.388   6.545  0.00  0.00    -0.061 S 
BRANCH  17  21
ATOM     21  C   UNL     1      -3.825  -1.105   3.795  0.00  0.00    +0.115 C 
BRANCH  21  22
ATOM     22  C   UNL     1      -5.134  -1.892   3.879  0.00  0.00    +0.019 C 
BRANCH  22  23
ATOM     23  C   UNL     1      -6.184  -1.234   2.981  0.00  0.00    +0.002 C 
BRANCH  23  24
ATOM     24  C   UNL     1      -7.493  -2.021   3.066  0.00  0.00    +0.011 C 
BRANCH  24  25
ATOM     25  C   UNL     1      -8.543  -1.363   2.167  0.00  0.00    +0.125 C 
BRANCH  25  26
ATOM     26  C   UNL     1      -9.832  -2.139   2.251  0.00  0.00    +0.356 C 
ATOM     27  O   UNL     1      -9.905  -3.126   2.962  0.00  0.00    -0.246 OA
ATOM     28  O   UNL     1     -10.803  -1.779   1.606  0.00  0.00    -0.246 OA
ENDBRANCH  25  26
ENDBRANCH  24  25
ENDBRANCH  23  24
ENDBRANCH  22  23
ENDBRANCH  21  22
ENDBRANCH  17  21
ENDBRANCH   2  13
BRANCH   1  29
ATOM     29  O   UNL     1       0.491  -2.508   2.629  0.00  0.00    -0.437 OA
BRANCH  29  35
ATOM     30  C   UNL     1      -1.273  -0.125  -1.248  0.00  0.00    +0.044 C 
ATOM     31  C   UNL     1      -0.130  -0.499  -0.340  0.00  0.00    -0.047 A 
ATOM     32  C   UNL     1       1.137  -0.002  -0.584  0.00  0.00    +0.003 A 
ATOM     33  C   UNL     1       2.188  -0.344   0.247  0.00  0.00    +0.004 A 
ATOM     34  C   UNL     1       1.974  -1.183   1.324  0.00  0.00    +0.046 A 
ATOM     35  C   UNL     1       0.704  -1.682   1.571  0.00  0.00    +0.131 A 
ATOM     36  C   UNL     1      -0.351  -1.333   0.739  0.00  0.00    +0.049 A 
ENDBRANCH  29  35
ENDBRANCH   1  29
TORSDOF 9
