REMARK  Name = ZINC13038048
REMARK  11 active torsions:
REMARK  status: ('A' for Active; 'I' for Inactive)
REMARK    1  A    between atoms: C_1  and  O_2
REMARK    2  A    between atoms: O_2  and  C_3
REMARK    3  A    between atoms: C_3  and  C_4
REMARK    4  A    between atoms: C_4  and  C_5
REMARK    5  A    between atoms: C_5  and  N_6
REMARK    6  A    between atoms: N_6  and  C_7
REMARK    7  A    between atoms: C_8  and  N_23
REMARK    8  A    between atoms: N_9  and  C_16
REMARK    9  A    between atoms: C_16  and  C_17
REMARK   10  A    between atoms: C_24  and  C_26
REMARK   11  A    between atoms: C_26  and  N_27
REMARK                            x       y       z     vdW  Elec       q    Type
REMARK                         _______ _______ _______ _____ _____    ______ ____
ROOT
ATOM      1  N   UNL     1      -2.446  -4.175  -0.009  0.00  0.00    -0.263 N 
ATOM      2  C   UNL     1      -2.566  -4.739  -1.229  0.00  0.00    +0.234 C 
ATOM      3  O   UNL     1      -2.583  -5.947  -1.339  0.00  0.00    -0.274 OA
ENDROOT
BRANCH   1   4
ATOM      4  C   UNL     1      -2.226  -4.986   1.125  0.00  0.00    +0.140 A 
ATOM      5  C   UNL     1      -3.182  -5.079   2.116  0.00  0.00    +0.128 A 
ATOM      6  N   UNL     1      -2.939  -5.878   3.210  0.00  0.00    -0.276 N 
ATOM      7  C   UNL     1      -1.783  -6.559   3.312  0.00  0.00    +0.331 A 
ATOM      8  O   UNL     1      -1.587  -7.259   4.287  0.00  0.00    -0.246 OA
ATOM      9  N   UNL     1      -0.841  -6.480   2.356  0.00  0.00    -0.273 N 
ATOM     10  H   UNL     1      -0.016  -6.981   2.453  0.00  0.00    +0.173 HD
ATOM     11  C   UNL     1      -1.032  -5.717   1.262  0.00  0.00    +0.277 A 
ATOM     12  O   UNL     1      -0.173  -5.656   0.398  0.00  0.00    -0.266 OA
BRANCH   5  13
ATOM     13  N   UNL     1      -4.362  -4.383   2.012  0.00  0.00    -0.343 N 
ATOM     14  H   UNL     1      -4.500  -3.770   1.273  0.00  0.00    +0.144 HD
ATOM     15  H   UNL     1      -5.057  -4.504   2.678  0.00  0.00    +0.144 HD
ENDBRANCH   5  13
BRANCH   6  16
ATOM     16  C   UNL     1      -3.945  -5.987   4.269  0.00  0.00    +0.163 C 
BRANCH  16  17
ATOM     17  C   UNL     1      -4.880  -7.127   3.959  0.00  0.00    -0.028 A 
ATOM     18  C   UNL     1      -6.021  -6.901   3.211  0.00  0.00    +0.005 A 
ATOM     19  C   UNL     1      -6.879  -7.946   2.926  0.00  0.00    +0.000 A 
ATOM     20  C   UNL     1      -6.596  -9.218   3.389  0.00  0.00    +0.000 A 
ATOM     21  C   UNL     1      -5.455  -9.444   4.136  0.00  0.00    +0.000 A 
ATOM     22  C   UNL     1      -4.595  -8.399   4.417  0.00  0.00    +0.005 A 
ENDBRANCH  16  17
ENDBRANCH   6  16
ENDBRANCH   1   4
BRANCH   1  23
ATOM     23  C   UNL     1      -2.543  -2.721   0.138  0.00  0.00    +0.116 C 
BRANCH  23  24
ATOM     24  C   UNL     1      -1.140  -2.111   0.112  0.00  0.00    +0.047 C 
BRANCH  24  25
ATOM     25  C   UNL     1      -1.241  -0.592   0.266  0.00  0.00    +0.161 C 
BRANCH  25  27
ATOM     26  C   UNL     1       0.087   1.400   0.378  0.00  0.00    +0.193 C 
ATOM     27  O   UNL     1       0.069  -0.022   0.241  0.00  0.00    -0.383 OA
ENDBRANCH  25  27
ENDBRANCH  24  25
ENDBRANCH  23  24
ENDBRANCH   1  23
BRANCH   2  28
ATOM     28  C   UNL     1      -2.679  -3.869  -2.454  0.00  0.00    +0.181 C 
BRANCH  28  29
ATOM     29  N   UNL     1      -2.799  -4.717  -3.647  0.00  0.00    -0.289 NA
ATOM     30  C   UNL     1      -2.695  -3.915  -4.877  0.00  0.00    +0.090 C 
ATOM     31  C   UNL     1      -2.457  -4.860  -6.055  0.00  0.00    +0.051 C 
ATOM     32  C   UNL     1      -3.475  -5.971  -6.036  0.00  0.00    -0.042 A 
ATOM     33  C   UNL     1      -3.661  -6.717  -7.190  0.00  0.00    +0.004 A 
ATOM     34  C   UNL     1      -4.581  -7.746  -7.215  0.00  0.00    +0.000 A 
ATOM     35  C   UNL     1      -5.320  -8.035  -6.083  0.00  0.00    +0.000 A 
ATOM     36  C   UNL     1      -5.137  -7.293  -4.934  0.00  0.00    +0.005 A 
ATOM     37  C   UNL     1      -4.215  -6.256  -4.909  0.00  0.00    -0.030 A 
ATOM     38  C   UNL     1      -4.058  -5.467  -3.635  0.00  0.00    +0.120 C 
ENDBRANCH  28  29
ENDBRANCH   2  28
TORSDOF 10
