REMARK  Name = ZINC63426867
REMARK  9 active torsions:
REMARK  status: ('A' for Active; 'I' for Inactive)
REMARK    1  A    between atoms: C_1  and  C_2
REMARK    2  A    between atoms: C_2  and  O_3
REMARK    3  A    between atoms: O_3  and  C_4
REMARK    4  A    between atoms: C_9  and  S_14
REMARK    5  A    between atoms: S_14  and  C_15
REMARK    6  A    between atoms: C_15  and  C_16
REMARK    7  A    between atoms: N_18  and  C_19
REMARK    8  A    between atoms: C_24  and  O_29
REMARK    9  A    between atoms: O_29  and  C_30
REMARK                            x       y       z     vdW  Elec       q    Type
REMARK                         _______ _______ _______ _____ _____    ______ ____
ROOT
ATOM      1  C   UNL     1       4.319  -5.723  -1.711  0.00  0.00    +0.168 C 
ENDROOT
BRANCH   1   2
ATOM      2  C   UNL     1       5.684  -6.303  -1.447  0.00  0.00    +0.225 C 
ATOM      3  O   UNL     1       6.063  -7.270  -2.072  0.00  0.00    -0.275 OA
ATOM      4  N   UNL     1       6.484  -5.747  -0.516  0.00  0.00    -0.288 N 
ATOM      5  H   UNL     1       6.181  -4.973  -0.015  0.00  0.00    +0.151 HD
BRANCH   4   6
ATOM      6  C   UNL     1       7.811  -6.311  -0.259  0.00  0.00    +0.224 C 
ATOM      7  N   UNL     1       8.616  -5.410   0.578  0.00  0.00    -0.316 N 
ATOM      8  C   UNL     1       9.027  -5.882   1.823  0.00  0.00    +0.046 A 
ATOM      9  C   UNL     1       9.799  -5.165   2.755  0.00  0.00    +0.069 A 
ATOM     10  C   UNL     1      10.156  -5.723   3.965  0.00  0.00    +0.122 A 
ATOM     11  C   UNL     1       9.764  -7.010   4.301  0.00  0.00    +0.047 A 
ATOM     12  C   UNL     1       9.003  -7.736   3.400  0.00  0.00    +0.020 A 
ATOM     13  C   UNL     1       8.649  -7.176   2.194  0.00  0.00    +0.032 A 
ATOM     14  S   UNL     1       7.701  -7.795   0.820  0.00  0.00    -0.082 S 
ATOM     15  H   UNL     1       8.852  -4.519   0.275  0.00  0.00    +0.149 HD
BRANCH  10  16
ATOM     16  O   UNL     1      10.905  -5.000   4.841  0.00  0.00    -0.495 OA
ATOM     17  C   UNL     1      11.244  -5.630   6.078  0.00  0.00    +0.277 C 
ENDBRANCH  10  16
ENDBRANCH   4   6
ENDBRANCH   1   2
BRANCH   1  18
ATOM     18  S   UNL     1       3.493  -6.685  -3.009  0.00  0.00    -0.106 S 
BRANCH  18  24
ATOM     19  C   UNL     1       0.776  -1.807  -1.336  0.00  0.00    +0.123 A 
ATOM     20  C   UNL     1       0.208  -2.690  -0.325  0.00  0.00    +0.048 A 
ATOM     21  C   UNL     1       0.281  -4.030  -0.429  0.00  0.00    +0.031 A 
ATOM     22  C   UNL     1       0.949  -4.637  -1.589  0.00  0.00    +0.061 A 
ATOM     23  N   UNL     1       1.157  -5.877  -1.931  0.00  0.00    -0.355 N 
ATOM     24  C   UNL     1       1.885  -5.869  -3.205  0.00  0.00    +0.236 C 
ATOM     25  N   UNL     1       2.076  -4.458  -3.565  0.00  0.00    -0.355 N 
ATOM     26  C   UNL     1       1.530  -3.738  -2.623  0.00  0.00    +0.064 A 
ATOM     27  C   UNL     1       1.403  -2.291  -2.436  0.00  0.00    +0.073 A 
ATOM     28  H   UNL     1       0.882  -6.662  -1.433  0.00  0.00    +0.162 HD
ATOM     29  H   UNL     1       2.524  -4.123  -4.357  0.00  0.00    +0.162 HD
BRANCH  19  30
ATOM     30  O   UNL     1       0.671  -0.465  -1.174  0.00  0.00    -0.492 OA
BRANCH  30  32
ATOM     31  C   UNL     1      -0.019   1.526   0.010  0.00  0.00    +0.048 C 
ATOM     32  C   UNL     1       0.002  -0.004   0.002  0.00  0.00    +0.225 C 
ENDBRANCH  30  32
ENDBRANCH  19  30
ENDBRANCH  18  24
ENDBRANCH   1  18
TORSDOF 7
