REMARK  Name = ZINC06809513
REMARK  5 active torsions:
REMARK  status: ('A' for Active; 'I' for Inactive)
REMARK    1  A    between atoms: C_6  and  N_7
REMARK    2  A    between atoms: N_7  and  C_8
REMARK    3  A    between atoms: C_14  and  N_16
REMARK    4  A    between atoms: N_16  and  S_17
REMARK    5  A    between atoms: S_17  and  C_20
REMARK                            x       y       z     vdW  Elec       q    Type
REMARK                         _______ _______ _______ _____ _____    ______ ____
ROOT
ATOM      1  C   UNL     1      -1.351   6.228   0.045  0.00  0.00    +0.089 C 
ATOM      2  C   UNL     1      -1.872   6.373  -1.386  0.00  0.00    +0.024 C 
ATOM      3  C   UNL     1      -3.207   7.120  -1.370  0.00  0.00    +0.002 C 
ATOM      4  C   UNL     1      -3.008   8.507  -0.756  0.00  0.00    +0.002 C 
ATOM      5  C   UNL     1      -2.487   8.362   0.675  0.00  0.00    +0.022 C 
ATOM      6  C   UNL     1      -1.152   7.615   0.659  0.00  0.00    +0.097 C 
ENDROOT
BRANCH   1   7
ATOM      7  N   UNL     1      -0.073   5.513   0.030  0.00  0.00    -0.339 N 
ATOM      8  H   UNL     1       0.761   6.009   0.024  0.00  0.00    +0.146 HD
BRANCH   7  14
ATOM      9  C   UNL     1       1.158   3.435   0.009  0.00  0.00    +0.026 A 
ATOM     10  C   UNL     1       1.174   2.054   0.002  0.00  0.00    +0.040 A 
ATOM     11  C   UNL     1      -0.016   1.347   0.009  0.00  0.00    +0.124 A 
ATOM     12  C   UNL     1      -1.225   2.022   0.019  0.00  0.00    +0.040 A 
ATOM     13  C   UNL     1      -1.246   3.403   0.031  0.00  0.00    +0.026 A 
ATOM     14  C   UNL     1      -0.054   4.114   0.023  0.00  0.00    +0.028 A 
ATOM     15  F   UNL     1       0.002  -0.004   0.002  0.00  0.00    -0.205 F 
ENDBRANCH   7  14
ENDBRANCH   1   7
BRANCH   6  16
ATOM     16  N   UNL     1      -0.654   7.476   2.030  0.00  0.00    -0.185 NA
ATOM     17  H   UNL     1      -0.954   6.737   2.582  0.00  0.00    +0.148 HD
BRANCH  16  18
ATOM     18  S   UNL     1       0.422   8.579   2.636  0.00  0.00    +0.059 S 
ATOM     19  O   UNL     1       0.689   8.191   3.976  0.00  0.00    -0.153 OA
ATOM     20  O   UNL     1       1.449   8.720   1.664  0.00  0.00    -0.153 OA
BRANCH  18  21
ATOM     21  C   UNL     1      -0.411  10.129   2.716  0.00  0.00    +0.105 A 
ATOM     22  C   UNL     1      -0.368  10.994   1.638  0.00  0.00    +0.030 A 
ATOM     23  C   UNL     1      -1.026  12.208   1.699  0.00  0.00    +0.022 A 
ATOM     24  C   UNL     1      -1.719  12.562   2.843  0.00  0.00    +0.041 A 
ATOM     25  C   UNL     1      -1.758  11.699   3.923  0.00  0.00    +0.022 A 
ATOM     26  C   UNL     1      -1.104  10.483   3.859  0.00  0.00    +0.030 A 
ATOM     27 CL   UNL     1      -2.540  14.090   2.922  0.00  0.00    -0.084 Cl
ENDBRANCH  18  21
ENDBRANCH  16  18
ENDBRANCH   6  16
TORSDOF 5
