REMARK  Name = ZINC12710177
REMARK  8 active torsions:
REMARK  status: ('A' for Active; 'I' for Inactive)
REMARK    1  A    between atoms: C_4  and  O_7
REMARK    2  A    between atoms: O_7  and  C_8
REMARK    3  A    between atoms: C_8  and  C_9
REMARK    4  A    between atoms: C_9  and  C_10
REMARK    5  A    between atoms: C_10  and  C_25
REMARK    6  A    between atoms: C_15  and  C_16
REMARK    7  A    between atoms: C_15  and  N_52
REMARK    8  A    between atoms: C_25  and  O_26
REMARK                            x       y       z     vdW  Elec       q    Type
REMARK                         _______ _______ _______ _____ _____    ______ ____
ROOT
ATOM      1  C   UNL     1      -1.197   3.271  -3.595  0.00  0.00    -0.006 C 
ATOM      2  C   UNL     1      -0.912   1.768  -3.543  0.00  0.00    -0.010 C 
ATOM      3  C   UNL     1      -0.238   1.427  -2.212  0.00  0.00    -0.078 C 
ATOM      4  C   UNL     1      -1.368   3.262  -1.105  0.00  0.00    -0.078 C 
ATOM      5  C   UNL     1      -2.075   3.658  -2.403  0.00  0.00    -0.010 C 
ATOM      6  N   UNL     1      -1.145   1.801  -1.106  0.00  0.00    +0.382 N 
ATOM      7  H   UNL     1      -2.046   1.327  -1.239  0.00  0.00    -0.081 HD
ENDROOT
BRANCH   1   8
ATOM      8  C   UNL     1       0.122   4.044  -3.530  0.00  0.00    +0.050 C 
BRANCH   8   9
ATOM      9  C   UNL     1       0.973   3.705  -4.757  0.00  0.00    +0.229 C 
BRANCH   9  10
ATOM     10  O   UNL     1       2.210   4.417  -4.689  0.00  0.00    -0.492 OA
BRANCH  10  14
ATOM     11  C   UNL     1       4.873   3.840  -7.787  0.00  0.00    +0.000 A 
ATOM     12  C   UNL     1       5.198   4.691  -6.747  0.00  0.00    +0.004 A 
ATOM     13  C   UNL     1       4.308   4.886  -5.709  0.00  0.00    +0.045 A 
ATOM     14  C   UNL     1       3.087   4.227  -5.710  0.00  0.00    +0.120 A 
ATOM     15  C   UNL     1       2.766   3.369  -6.752  0.00  0.00    +0.045 A 
ATOM     16  C   UNL     1       3.657   3.182  -7.791  0.00  0.00    +0.004 A 
ENDBRANCH  10  14
ENDBRANCH   9  10
ENDBRANCH   8   9
ENDBRANCH   1   8
BRANCH   6  17
ATOM     17  C   UNL     1      -0.566   1.378   0.186  0.00  0.00    -0.043 C 
BRANCH  17  18
ATOM     18  C   UNL     1      -1.357   1.998   1.308  0.00  0.00    -0.062 A 
ATOM     19  C   UNL     1      -2.468   1.323   1.814  0.00  0.00    +0.004 A 
ATOM     20  C   UNL     1      -3.212   1.837   2.822  0.00  0.00    +0.031 A 
ATOM     21  C   UNL     1      -2.868   3.092   3.390  0.00  0.00    +0.100 A 
ATOM     22  C   UNL     1      -1.705   3.799   2.860  0.00  0.00    +0.100 A 
ATOM     23  C   UNL     1      -0.970   3.197   1.806  0.00  0.00    +0.032 A 
ATOM     24  N   UNL     1      -1.499   4.958   3.482  0.00  0.00    -0.191 NA
ATOM     25  S   UNL     1      -2.630   5.084   4.560  0.00  0.00    +0.116 S 
ATOM     26  N   UNL     1      -3.458   3.767   4.374  0.00  0.00    -0.191 NA
ENDBRANCH  17  18
ENDBRANCH   6  17
BRANCH   1  27
ATOM     27  C   UNL     1      -1.925   3.609  -4.898  0.00  0.00    +0.162 C 
BRANCH  27  28
ATOM     28  O   UNL     1      -2.084   5.025  -5.001  0.00  0.00    -0.394 OA
ATOM     29  H   UNL     1      -2.539   5.312  -5.805  0.00  0.00    +0.209 HD
ENDBRANCH  27  28
ENDBRANCH   1  27
TORSDOF 8
