REMARK  Name = ZINC38959382
REMARK  10 active torsions:
REMARK  status: ('A' for Active; 'I' for Inactive)
REMARK    1  A    between atoms: C_1  and  C_2
REMARK    2  A    between atoms: C_2  and  C_3
REMARK    3  A    between atoms: C_5  and  C_26
REMARK    4  A    between atoms: C_6  and  C_11
REMARK    5  A    between atoms: C_7  and  C_9
REMARK    6  A    between atoms: C_9  and  C_10
REMARK    7  A    between atoms: C_13  and  C_24
REMARK    8  A    between atoms: C_14  and  N_23
REMARK    9  A    between atoms: C_19  and  C_22
REMARK   10  A    between atoms: C_26  and  C_27
REMARK                            x       y       z     vdW  Elec       q    Type
REMARK                         _______ _______ _______ _____ _____    ______ ____
ROOT
ATOM      1  C   UNL     1      -6.915  -1.893  -0.265  0.00  0.00    +0.094 C 
ATOM      2  C   UNL     1      -8.005  -1.294  -1.131  0.00  0.00    +0.074 C 
ATOM      3  C   UNL     1      -8.529  -1.939  -2.178  0.00  0.00    +0.082 C 
ATOM      4  N   UNL     1      -8.179  -3.198  -2.595  0.00  0.00    -0.307 N 
ATOM      5  C   UNL     1      -6.898  -3.753  -2.139  0.00  0.00    +0.242 C 
ATOM      6  C   UNL     1      -6.805  -3.337  -0.666  0.00  0.00    +0.009 C 
ATOM      7  C   UNL     1      -6.646  -4.458  -0.006  0.00  0.00    +0.064 C 
ATOM      8  N   UNL     1      -6.747  -5.519  -0.847  0.00  0.00    -0.157 NA
ATOM      9  N   UNL     1      -6.913  -5.215  -2.057  0.00  0.00    -0.160 NA
ATOM     10  C   UNL     1      -6.389  -4.556   1.476  0.00  0.00    +0.067 C 
ATOM     11  H   UNL     1      -8.764  -3.709  -3.177  0.00  0.00    +0.150 HD
ENDROOT
BRANCH   1  15
ATOM     12  C   UNL     1      -3.208   0.110  -0.972  0.00  0.00    -0.047 A 
ATOM     13  C   UNL     1      -3.653  -0.084   0.322  0.00  0.00    +0.007 A 
ATOM     14  C   UNL     1      -4.853  -0.732   0.551  0.00  0.00    -0.043 A 
ATOM     15  C   UNL     1      -5.608  -1.186  -0.515  0.00  0.00    -0.029 A 
ATOM     16  C   UNL     1      -5.163  -0.991  -1.809  0.00  0.00    -0.043 A 
ATOM     17  C   UNL     1      -3.966  -0.339  -2.038  0.00  0.00    +0.007 A 
BRANCH  12  19
ATOM     18  C   UNL     1      -2.150   2.321  -1.348  0.00  0.00    +0.009 C 
ATOM     19  C   UNL     1      -1.901   0.816  -1.222  0.00  0.00    +0.032 C 
ENDBRANCH  12  19
BRANCH  16  20
ATOM     20  C   UNL     1      -5.986  -1.486  -2.971  0.00  0.00    +0.032 C 
ATOM     21  C   UNL     1      -6.008  -0.422  -4.070  0.00  0.00    +0.009 C 
ENDBRANCH  16  20
BRANCH  14  22
ATOM     22  C   UNL     1      -5.337  -0.945   1.962  0.00  0.00    +0.032 C 
ATOM     23  C   UNL     1      -4.165  -1.383   2.843  0.00  0.00    +0.009 C 
ENDBRANCH  14  22
ENDBRANCH   1  15
BRANCH   3  24
ATOM     24  N   UNL     1      -9.517  -1.274  -2.910  0.00  0.00    -0.405 NA
ATOM     25  H   UNL     1      -9.086  -0.741  -3.650  0.00  0.00    +0.122 HD
ATOM     26  H   UNL     1     -10.152  -1.950  -3.308  0.00  0.00    +0.122 HD
ATOM     27  H   UNL     1     -10.026  -0.652  -2.300  0.00  0.00    +0.122 HD
ENDBRANCH   3  24
BRANCH   2  28
ATOM     28  C   UNL     1      -8.493   0.015  -0.814  0.00  0.00    +0.099 C 
ATOM     29  N   UNL     1      -8.881   1.052  -0.563  0.00  0.00    -0.191 NA
ENDBRANCH   2  28
TORSDOF 6
