REMARK  Name = ZINC20695708
REMARK  5 active torsions:
REMARK  status: ('A' for Active; 'I' for Inactive)
REMARK    1  A    between atoms: C_4  and  N_7
REMARK    2  A    between atoms: N_7  and  S_8
REMARK    3  A    between atoms: S_8  and  C_11
REMARK    4  A    between atoms: C_24  and  C_27
REMARK    5  A    between atoms: C_32  and  O_33
REMARK                            x       y       z     vdW  Elec       q    Type
REMARK                         _______ _______ _______ _____ _____    ______ ____
ROOT
ATOM      1  C   UNL     1       6.213  -1.808  -1.549  0.00  0.00    +0.109 A 
ATOM      2  C   UNL     1       6.461  -1.807  -0.188  0.00  0.00    +0.030 A 
ATOM      3  C   UNL     1       6.121  -0.703   0.568  0.00  0.00    +0.025 A 
ATOM      4  C   UNL     1       5.532   0.400  -0.037  0.00  0.00    +0.031 A 
ATOM      5  C   UNL     1       5.283   0.404  -1.401  0.00  0.00    -0.018 A 
ATOM      6  C   UNL     1       5.630  -0.712  -2.151  0.00  0.00    +0.034 A 
ATOM      7  C   UNL     1       4.654   1.569  -2.097  0.00  0.00    +0.049 C 
ATOM      8  C   UNL     1       3.214   1.287  -2.452  0.00  0.00    -0.023 C 
ATOM      9  C   UNL     1       2.492   2.373  -2.320  0.00  0.00    -0.030 C 
ATOM     10  C   UNL     1       3.357   3.533  -1.863  0.00  0.00    +0.033 C 
ATOM     11  C   UNL     1       4.587   2.832  -1.216  0.00  0.00    +0.029 C 
ATOM     12  C   UNL     1       4.197   2.452   0.215  0.00  0.00    +0.108 C 
ATOM     13  N   UNL     1       5.189   1.510   0.743  0.00  0.00    -0.336 N 
ATOM     14  H   UNL     1       5.643   1.685   1.729  0.00  0.00    +0.147 HD
ENDROOT
BRANCH  12  15
ATOM     15  C   UNL     1       2.837   1.804   0.212  0.00  0.00    +0.015 A 
ATOM     16  C   UNL     1       2.722   0.438   0.035  0.00  0.00    +0.024 A 
ATOM     17  C   UNL     1       1.473  -0.157   0.033  0.00  0.00    +0.018 A 
ATOM     18  C   UNL     1       0.337   0.613   0.207  0.00  0.00    +0.019 A 
ATOM     19  C   UNL     1       0.448   1.978   0.383  0.00  0.00    +0.047 A 
ATOM     20  C   UNL     1       1.699   2.578   0.386  0.00  0.00    +0.122 A 
ATOM     21 BR   UNL     1       1.319  -2.026  -0.209  0.00  0.00    -0.050 Br
BRANCH  20  22
ATOM     22  O   UNL     1       1.810   3.921   0.559  0.00  0.00    -0.506 OA
ATOM     23  H   UNL     1       0.907   4.534   0.697  0.00  0.00    +0.292 HD
ENDBRANCH  20  22
ENDBRANCH  12  15
BRANCH   1  24
ATOM     24  S   UNL     1       6.646  -3.214  -2.518  0.00  0.00    +0.072 S 
ATOM     25  O   UNL     1       6.571  -4.340  -1.655  0.00  0.00    -0.150 OA
ATOM     26  O   UNL     1       5.895  -3.125  -3.721  0.00  0.00    -0.150 OA
BRANCH  24  27
ATOM     27  N   UNL     1       8.239  -3.046  -2.941  0.00  0.00    -0.216 N 
ATOM     28  H   UNL     1       8.518  -2.930  -3.998  0.00  0.00    +0.174 HD
BRANCH  27  32
ATOM     29  C   UNL     1      11.186  -3.066  -0.000  0.00  0.00    +0.000 A 
ATOM     30  C   UNL     1      10.575  -4.249  -0.372  0.00  0.00    +0.002 A 
ATOM     31  C   UNL     1       9.597  -4.246  -1.347  0.00  0.00    +0.024 A 
ATOM     32  C   UNL     1       9.227  -3.053  -1.954  0.00  0.00    +0.048 A 
ATOM     33  C   UNL     1       9.847  -1.867  -1.582  0.00  0.00    +0.024 A 
ATOM     34  C   UNL     1      10.821  -1.876  -0.603  0.00  0.00    +0.002 A 
ENDBRANCH  27  32
ENDBRANCH  24  27
ENDBRANCH   1  24
TORSDOF 5
