REMARK  Name = ZINC43630753
REMARK  3 active torsions:
REMARK  status: ('A' for Active; 'I' for Inactive)
REMARK    1  A    between atoms: C_8  and  C_11
REMARK    2  A    between atoms: N_17  and  C_25
REMARK    3  A    between atoms: C_25  and  C_26
REMARK                            x       y       z     vdW  Elec       q    Type
REMARK                         _______ _______ _______ _____ _____    ______ ____
ROOT
ATOM      1  C   UNL     1       3.768  -3.404  -0.053  0.00  0.00    -0.019 C 
ATOM      2  C   UNL     1       4.031  -3.893   1.394  0.00  0.00    -0.005 C 
ATOM      3  C   UNL     1       5.319  -4.733   1.210  0.00  0.00    +0.003 C 
ATOM      4  C   UNL     1       6.206  -4.597   2.461  0.00  0.00    +0.110 C 
ATOM      5  N   UNL     1       7.054  -3.422   2.236  0.00  0.00    -0.298 N 
ATOM      6  C   UNL     1       7.045  -3.051   0.944  0.00  0.00    +0.206 C 
ATOM      7  O   UNL     1       7.703  -2.143   0.480  0.00  0.00    -0.277 OA
ATOM      8  C   UNL     1       6.096  -3.931   0.139  0.00  0.00    +0.018 C 
ATOM      9  N   UNL     1       5.108  -3.137  -0.619  0.00  0.00    +0.395 N 
ATOM     10  C   UNL     1       5.141  -3.595  -2.026  0.00  0.00    -0.076 C 
ATOM     11  C   UNL     1       6.562  -4.183  -2.219  0.00  0.00    -0.019 C 
ATOM     12  C   UNL     1       6.814  -4.862  -0.841  0.00  0.00    -0.004 C 
ATOM     13  H   UNL     1       5.326  -2.154  -0.557  0.00  0.00    -0.079 HD
ENDROOT
BRANCH   1  21
ATOM     14  C   UNL     1      -0.017   1.362   0.009  0.00  0.00    +0.001 A 
ATOM     15  C   UNL     1       1.170   2.083   0.002  0.00  0.00    +0.002 A 
ATOM     16  C   UNL     1       2.386   1.436  -0.013  0.00  0.00    +0.026 A 
ATOM     17  C   UNL     1       2.428   0.046  -0.021  0.00  0.00    +0.047 A 
ATOM     18  C   UNL     1       1.223  -0.681  -0.013  0.00  0.00    -0.000 A 
ATOM     19  C   UNL     1       0.002  -0.004   0.002  0.00  0.00    +0.010 A 
ATOM     20  C   UNL     1       1.604  -2.095  -0.025  0.00  0.00    +0.029 A 
ATOM     21  C   UNL     1       2.945  -2.141  -0.038  0.00  0.00    +0.003 A 
ATOM     22  N   UNL     1       3.455  -0.871  -0.036  0.00  0.00    -0.359 N 
ATOM     23  H   UNL     1       4.399  -0.650  -0.044  0.00  0.00    +0.166 HD
ENDBRANCH   1  21
BRANCH   5  24
ATOM     24  C   UNL     1       7.816  -2.740   3.285  0.00  0.00    +0.142 C 
BRANCH  24  25
ATOM     25  C   UNL     1       9.187  -3.357   3.393  0.00  0.00    -0.029 A 
ATOM     26  C   UNL     1       9.399  -4.424   4.246  0.00  0.00    +0.005 A 
ATOM     27  C   UNL     1      10.657  -4.990   4.345  0.00  0.00    +0.002 A 
ATOM     28  C   UNL     1      11.702  -4.489   3.592  0.00  0.00    +0.020 A 
ATOM     29  C   UNL     1      11.489  -3.421   2.739  0.00  0.00    +0.041 A 
ATOM     30  C   UNL     1      10.229  -2.859   2.635  0.00  0.00    +0.025 A 
ATOM     31 CL   UNL     1      12.802  -2.792   1.792  0.00  0.00    -0.084 Cl
ENDBRANCH  24  25
ENDBRANCH   5  24
TORSDOF 3
