REMARK  Name = ZINC14460581
REMARK  7 active torsions:
REMARK  status: ('A' for Active; 'I' for Inactive)
REMARK    1  A    between atoms: C_1  and  C_2
REMARK    2  A    between atoms: C_2  and  O_3
REMARK    3  A    between atoms: O_3  and  C_4
REMARK    4  A    between atoms: C_4  and  C_5
REMARK    5  A    between atoms: C_5  and  O_6
REMARK    6  A    between atoms: O_6  and  C_7
REMARK    7  A    between atoms: C_14  and  C_23
REMARK                            x       y       z     vdW  Elec       q    Type
REMARK                         _______ _______ _______ _____ _____    ______ ____
ROOT
ATOM      1  C   UNL     1       0.231   1.109   2.916  0.00  0.00    +0.142 A 
ATOM      2  C   UNL     1       1.387   0.404   3.185  0.00  0.00    +0.047 A 
ATOM      3  C   UNL     1       1.787   0.197   4.492  0.00  0.00    +0.004 A 
ATOM      4  C   UNL     1       1.015   0.685   5.529  0.00  0.00    +0.006 A 
ATOM      5  C   UNL     1      -0.150   1.379   5.271  0.00  0.00    -0.016 A 
ATOM      6  C   UNL     1      -0.561   1.609   3.957  0.00  0.00    +0.074 A 
ATOM      7  N   UNL     1      -1.709   2.324   3.609  0.00  0.00    -0.334 N 
ATOM      8  C   UNL     1      -2.568   2.774   4.716  0.00  0.00    +0.105 C 
ATOM      9  C   UNL     1      -1.653   3.214   5.840  0.00  0.00    +0.029 C 
ATOM     10  C   UNL     1      -1.007   1.893   6.362  0.00  0.00    +0.049 C 
ATOM     11  C   UNL     1      -0.491   2.290   7.705  0.00  0.00    -0.023 C 
ATOM     12  C   UNL     1      -1.218   3.301   8.170  0.00  0.00    -0.030 C 
ATOM     13  C   UNL     1      -2.296   3.679   7.151  0.00  0.00    +0.033 C 
ATOM     14  H   UNL     1      -2.245   1.830   2.913  0.00  0.00    +0.147 HD
ENDROOT
BRANCH   8  15
ATOM     15  C   UNL     1      -3.443   1.638   5.182  0.00  0.00    -0.026 A 
ATOM     16  C   UNL     1      -3.050   0.330   4.967  0.00  0.00    +0.005 A 
ATOM     17  C   UNL     1      -3.849  -0.712   5.398  0.00  0.00    +0.002 A 
ATOM     18  C   UNL     1      -5.047  -0.447   6.035  0.00  0.00    +0.020 A 
ATOM     19  C   UNL     1      -5.443   0.861   6.245  0.00  0.00    +0.041 A 
ATOM     20  C   UNL     1      -4.640   1.904   5.819  0.00  0.00    +0.025 A 
ATOM     21 CL   UNL     1      -6.947   1.195   7.045  0.00  0.00    -0.084 Cl
ENDBRANCH   8  15
BRANCH   1  22
ATOM     22  O   UNL     1      -0.147   1.316   1.625  0.00  0.00    -0.488 OA
BRANCH  22  23
ATOM     23  C   UNL     1       0.702   0.781   0.608  0.00  0.00    +0.257 C 
BRANCH  23  24
ATOM     24  C   UNL     1       0.120   1.111  -0.768  0.00  0.00    +0.200 C 
BRANCH  24  25
ATOM     25  O   UNL     1       0.138   2.526  -0.966  0.00  0.00    -0.377 OA
BRANCH  25  27
ATOM     26  C   UNL     1      -0.320   4.468  -2.329  0.00  0.00    +0.034 C 
ATOM     27  C   UNL     1      -0.388   2.943  -2.228  0.00  0.00    +0.156 C 
ENDBRANCH  25  27
ENDBRANCH  24  25
ENDBRANCH  23  24
ENDBRANCH  22  23
ENDBRANCH   1  22
TORSDOF 6
