REMARK  Name = ZINC66303510
REMARK  7 active torsions:
REMARK  status: ('A' for Active; 'I' for Inactive)
REMARK    1  A    between atoms: C_1  and  C_2
REMARK    2  A    between atoms: C_2  and  C_4
REMARK    3  A    between atoms: C_2  and  N_19
REMARK    4  A    between atoms: C_4  and  C_5
REMARK    5  A    between atoms: N_7  and  C_8
REMARK    6  A    between atoms: C_8  and  C_9
REMARK    7  A    between atoms: C_20  and  C_22
REMARK                            x       y       z     vdW  Elec       q    Type
REMARK                         _______ _______ _______ _____ _____    ______ ____
ROOT
ATOM      1  C   UNL     1      -1.416  -2.035  -0.119  0.00  0.00    +0.215 C 
ATOM      2  O   UNL     1      -0.359  -2.623  -0.213  0.00  0.00    -0.276 OA
ATOM      3  N   UNL     1      -2.574  -2.724  -0.133  0.00  0.00    -0.312 N 
ATOM      4  H   UNL     1      -3.419  -2.253  -0.058  0.00  0.00    +0.149 HD
ENDROOT
BRANCH   1   5
ATOM      5  C   UNL     1      -1.433  -0.534   0.013  0.00  0.00    +0.117 C 
BRANCH   5   7
ATOM      6  C   UNL     1      -0.019   1.526   0.010  0.00  0.00    +0.028 C 
ATOM      7  C   UNL     1       0.002  -0.004   0.002  0.00  0.00    +0.079 C 
BRANCH   7   8
ATOM      8  N   UNL     1       0.711  -0.489   1.189  0.00  0.00    -0.312 N 
ATOM      9  C   UNL     1       2.054  -0.600   1.174  0.00  0.00    +0.216 C 
ATOM     10  O   UNL     1       2.676  -0.297   0.177  0.00  0.00    -0.276 OA
ATOM     11  H   UNL     1       0.213  -0.731   1.986  0.00  0.00    +0.149 HD
BRANCH   9  12
ATOM     12  C   UNL     1       2.783  -1.099   2.395  0.00  0.00    +0.075 C 
ATOM     13  C   UNL     1       2.502  -0.165   3.574  0.00  0.00    +0.013 C 
ATOM     14  C   UNL     1       3.242  -0.672   4.813  0.00  0.00    +0.001 C 
ATOM     15  C   UNL     1       4.746  -0.702   4.533  0.00  0.00    +0.000 C 
ATOM     16  C   UNL     1       5.026  -1.635   3.354  0.00  0.00    +0.001 C 
ATOM     17  C   UNL     1       4.287  -1.129   2.114  0.00  0.00    +0.013 C 
ENDBRANCH   9  12
ENDBRANCH   7   8
ENDBRANCH   5   7
ENDBRANCH   1   5
BRANCH   3  18
ATOM     18  C   UNL     1      -2.558  -4.183  -0.262  0.00  0.00    +0.149 C 
BRANCH  18  19
ATOM     19  C   UNL     1      -3.993  -4.712  -0.251  0.00  0.00    +0.195 C 
ATOM     20  C   UNL     1      -4.007  -6.258  -0.323  0.00  0.00    +0.085 C 
ATOM     21  C   UNL     1      -5.226  -6.520  -1.186  0.00  0.00    -0.002 A 
ATOM     22  C   UNL     1      -5.967  -7.657  -1.419  0.00  0.00    +0.007 A 
ATOM     23  C   UNL     1      -7.058  -7.610  -2.268  0.00  0.00    +0.000 A 
ATOM     24  C   UNL     1      -7.401  -6.418  -2.879  0.00  0.00    +0.004 A 
ATOM     25  C   UNL     1      -6.659  -5.278  -2.650  0.00  0.00    +0.046 A 
ATOM     26  C   UNL     1      -5.556  -5.318  -1.800  0.00  0.00    +0.124 A 
ATOM     27  O   UNL     1      -4.687  -4.327  -1.450  0.00  0.00    -0.487 OA
ENDBRANCH  18  19
ENDBRANCH   3  18
TORSDOF 6
