REMARK  Name = ZINC14460803
REMARK  4 active torsions:
REMARK  status: ('A' for Active; 'I' for Inactive)
REMARK    1  A    between atoms: C_4  and  O_7
REMARK    2  A    between atoms: O_7  and  C_8
REMARK    3  A    between atoms: C_21  and  C_24
REMARK    4  A    between atoms: C_29  and  O_30
REMARK                            x       y       z     vdW  Elec       q    Type
REMARK                         _______ _______ _______ _____ _____    ______ ____
ROOT
ATOM      1  C   UNL     1       4.579   5.341   1.969  0.00  0.00    +0.129 A 
ATOM      2  C   UNL     1       4.733   5.513   0.601  0.00  0.00    +0.048 A 
ATOM      3  C   UNL     1       3.618   5.666  -0.198  0.00  0.00    +0.027 A 
ATOM      4  C   UNL     1       2.349   5.646   0.367  0.00  0.00    +0.032 A 
ATOM      5  C   UNL     1       2.188   5.477   1.730  0.00  0.00    -0.016 A 
ATOM      6  C   UNL     1       3.313   5.324   2.529  0.00  0.00    +0.052 A 
ATOM      7  C   UNL     1       0.839   5.451   2.397  0.00  0.00    +0.049 C 
ATOM      8  C   UNL     1       0.810   6.585   3.413  0.00  0.00    -0.023 C 
ATOM      9  C   UNL     1       0.234   7.643   2.902  0.00  0.00    -0.030 C 
ATOM     10  C   UNL     1      -0.208   7.370   1.475  0.00  0.00    +0.033 C 
ATOM     11  C   UNL     1      -0.301   5.826   1.433  0.00  0.00    +0.029 C 
ATOM     12  C   UNL     1      -0.060   5.303   0.029  0.00  0.00    +0.108 C 
ATOM     13  N   UNL     1       1.230   5.798  -0.465  0.00  0.00    -0.336 N 
ATOM     14  H   UNL     1       1.306   6.216  -1.337  0.00  0.00    +0.147 HD
ENDROOT
BRANCH  12  15
ATOM     15  C   UNL     1      -0.045   3.796   0.050  0.00  0.00    +0.015 A 
ATOM     16  C   UNL     1       1.157   3.116   0.007  0.00  0.00    +0.024 A 
ATOM     17  C   UNL     1       1.172   1.734   0.026  0.00  0.00    +0.018 A 
ATOM     18  C   UNL     1      -0.017   1.028   0.090  0.00  0.00    +0.019 A 
ATOM     19  C   UNL     1      -1.221   1.704   0.129  0.00  0.00    +0.047 A 
ATOM     20  C   UNL     1      -1.238   3.091   0.114  0.00  0.00    +0.122 A 
ATOM     21 BR   UNL     1       2.818   0.806  -0.034  0.00  0.00    -0.050 Br
BRANCH  20  22
ATOM     22  O   UNL     1      -2.421   3.758   0.157  0.00  0.00    -0.506 OA
ATOM     23  H   UNL     1      -2.803   3.938  -0.713  0.00  0.00    +0.292 HD
ENDBRANCH  20  22
ENDBRANCH  12  15
BRANCH   1  24
ATOM     24  O   UNL     1       5.673   5.190   2.762  0.00  0.00    -0.456 OA
BRANCH  24  28
ATOM     25  C   UNL     1       9.393   5.614   1.029  0.00  0.00    +0.000 A 
ATOM     26  C   UNL     1       8.626   6.732   1.298  0.00  0.00    +0.004 A 
ATOM     27  C   UNL     1       7.380   6.593   1.879  0.00  0.00    +0.046 A 
ATOM     28  C   UNL     1       6.898   5.330   2.191  0.00  0.00    +0.128 A 
ATOM     29  C   UNL     1       7.673   4.209   1.925  0.00  0.00    +0.046 A 
ATOM     30  C   UNL     1       8.916   4.354   1.340  0.00  0.00    +0.004 A 
ENDBRANCH  24  28
ENDBRANCH   1  24
TORSDOF 4
