REMARK  Name = ZINC18256191
REMARK  6 active torsions:
REMARK  status: ('A' for Active; 'I' for Inactive)
REMARK    1  A    between atoms: C_4  and  C_7
REMARK    2  A    between atoms: C_7  and  N_8
REMARK    3  A    between atoms: C_17  and  C_19
REMARK    4  A    between atoms: C_19  and  O_21
REMARK    5  A    between atoms: O_21  and  C_22
REMARK    6  A    between atoms: C_22  and  C_23
REMARK                            x       y       z     vdW  Elec       q    Type
REMARK                         _______ _______ _______ _____ _____    ______ ____
ROOT
ATOM      1  C   UNL     1      -2.737  -1.405  -2.167  0.00  0.00    +0.360 C 
ATOM      2  O   UNL     1      -3.448  -1.903  -1.317  0.00  0.00    -0.243 OA
ENDROOT
BRANCH   1  12
ATOM      3  N   UNL     1      -2.615  -0.984  -5.766  0.00  0.00    -0.224 N 
ATOM      4  C   UNL     1      -3.711  -1.574  -6.286  0.00  0.00    +0.275 A 
ATOM      5  O   UNL     1      -3.908  -1.572  -7.488  0.00  0.00    -0.266 OA
ATOM      6  C   UNL     1      -4.661  -2.219  -5.369  0.00  0.00    +0.050 A 
ATOM      7  C   UNL     1      -5.820  -2.854  -5.805  0.00  0.00    +0.014 A 
ATOM      8  C   UNL     1      -6.660  -3.436  -4.880  0.00  0.00    +0.001 A 
ATOM      9  C   UNL     1      -6.362  -3.394  -3.525  0.00  0.00    +0.001 A 
ATOM     10  C   UNL     1      -5.218  -2.769  -3.073  0.00  0.00    +0.011 A 
ATOM     11  C   UNL     1      -4.354  -2.181  -3.990  0.00  0.00    +0.021 A 
ATOM     12  C   UNL     1      -3.118  -1.489  -3.590  0.00  0.00    +0.176 A 
ATOM     13  N   UNL     1      -2.356  -0.954  -4.513  0.00  0.00    -0.161 NA
BRANCH   3  14
ATOM     14  C   UNL     1      -1.671  -0.343  -6.684  0.00  0.00    +0.182 C 
BRANCH  14  18
ATOM     15  C   UNL     1      -2.780   3.745  -7.242  0.00  0.00    +0.000 A 
ATOM     16  C   UNL     1      -1.912   3.397  -6.224  0.00  0.00    +0.000 A 
ATOM     17  C   UNL     1      -1.553   2.074  -6.044  0.00  0.00    +0.005 A 
ATOM     18  C   UNL     1      -2.063   1.099  -6.881  0.00  0.00    -0.026 A 
ATOM     19  C   UNL     1      -2.927   1.448  -7.902  0.00  0.00    +0.005 A 
ATOM     20  C   UNL     1      -3.290   2.770  -8.079  0.00  0.00    +0.000 A 
ENDBRANCH  14  18
ENDBRANCH   3  14
ENDBRANCH   1  12
BRANCH   1  21
ATOM     21  O   UNL     1      -1.600  -0.774  -1.810  0.00  0.00    -0.452 OA
BRANCH  21  22
ATOM     22  C   UNL     1      -1.289  -0.729  -0.393  0.00  0.00    +0.308 C 
BRANCH  22  23
ATOM     23  C   UNL     1       0.009   0.010  -0.187  0.00  0.00    +0.170 A 
ATOM     24  N   UNL     1       1.145  -0.664  -0.195  0.00  0.00    -0.214 NA
ATOM     25  C   UNL     1       2.316  -0.074  -0.019  0.00  0.00    +0.128 A 
ATOM     26  C   UNL     1       2.358   1.333   0.184  0.00  0.00    +0.051 A 
ATOM     27  C   UNL     1       3.523   2.194   0.398  0.00  0.00    -0.025 A 
ATOM     28  C   UNL     1       3.287   3.511   0.566  0.00  0.00    -0.004 A 
ATOM     29  S   UNL     1       1.527   3.684   0.452  0.00  0.00    -0.073 S 
ATOM     30  C   UNL     1       1.108   1.983   0.179  0.00  0.00    +0.114 A 
ATOM     31  N   UNL     1      -0.015   1.316  -0.003  0.00  0.00    -0.221 NA
ATOM     32  C   UNL     1       4.299   4.591   0.800  0.00  0.00    +0.043 C 
ATOM     33  C   UNL     1       5.629   3.933   1.193  0.00  0.00    +0.005 C 
ATOM     34  C   UNL     1       5.926   2.799   0.206  0.00  0.00    +0.005 C 
ATOM     35  C   UNL     1       4.947   1.646   0.432  0.00  0.00    +0.037 C 
ATOM     36  N   UNL     1       3.483  -0.816  -0.035  0.00  0.00    -0.343 N 
ATOM     37  H   UNL     1       3.481  -1.716  -0.395  0.00  0.00    +0.144 HD
ATOM     38  H   UNL     1       4.304  -0.435   0.315  0.00  0.00    +0.144 HD
ENDBRANCH  22  23
ENDBRANCH  21  22
ENDBRANCH   1  21
TORSDOF 6
