REMARK  Name = ZINC40323031
REMARK  7 active torsions:
REMARK  status: ('A' for Active; 'I' for Inactive)
REMARK    1  A    between atoms: C_4  and  C_7
REMARK    2  A    between atoms: C_7  and  C_9
REMARK    3  A    between atoms: C_7  and  N_28
REMARK    4  A    between atoms: C_9  and  N_10
REMARK    5  A    between atoms: C_11  and  C_13
REMARK    6  A    between atoms: C_16  and  S_18
REMARK    7  A    between atoms: S_18  and  C_21
REMARK                            x       y       z     vdW  Elec       q    Type
REMARK                         _______ _______ _______ _____ _____    ______ ____
ROOT
ATOM      1  N   UNL     1       4.196   0.042  -2.338  0.00  0.00    -0.310 N 
ATOM      2  C   UNL     1       4.433  -0.092  -3.659  0.00  0.00    +0.279 C 
ATOM      3  O   UNL     1       4.578  -1.199  -4.142  0.00  0.00    -0.267 OA
ATOM      4  H   UNL     1       4.081   0.925  -1.953  0.00  0.00    +0.149 HD
ENDROOT
BRANCH   2   5
ATOM      5  C   UNL     1       4.516   1.098  -4.513  0.00  0.00    +0.192 A 
ATOM      6  C   UNL     1       4.744   1.104  -5.859  0.00  0.00    +0.056 A 
ATOM      7  C   UNL     1       4.741   2.449  -6.262  0.00  0.00    +0.070 A 
ATOM      8  C   UNL     1       4.515   3.195  -5.158  0.00  0.00    +0.246 A 
ATOM      9  O   UNL     1       4.375   2.377  -4.107  0.00  0.00    -0.433 OA
BRANCH   8  10
ATOM     10  S   UNL     1       4.415   4.953  -5.111  0.00  0.00    +0.058 S 
ATOM     11  O   UNL     1       4.728   5.342  -3.780  0.00  0.00    -0.161 OA
ATOM     12  O   UNL     1       5.141   5.432  -6.235  0.00  0.00    -0.161 OA
BRANCH  10  13
ATOM     13  C   UNL     1       2.728   5.387  -5.378  0.00  0.00    +0.097 A 
ATOM     14  C   UNL     1       2.264   5.594  -6.663  0.00  0.00    +0.028 A 
ATOM     15  C   UNL     1       0.941   5.934  -6.874  0.00  0.00    +0.017 A 
ATOM     16  C   UNL     1       0.081   6.066  -5.798  0.00  0.00    +0.018 A 
ATOM     17  C   UNL     1       0.547   5.858  -4.512  0.00  0.00    +0.017 A 
ATOM     18  C   UNL     1       1.869   5.513  -4.303  0.00  0.00    +0.028 A 
ATOM     19 BR   UNL     1      -1.729   6.531  -6.085  0.00  0.00    -0.050 Br
ENDBRANCH  10  13
ENDBRANCH   8  10
ENDBRANCH   2   5
BRANCH   1  20
ATOM     20  C   UNL     1       4.114  -1.146  -1.485  0.00  0.00    +0.094 C 
BRANCH  20  21
ATOM     21  C   UNL     1       3.708  -0.730  -0.070  0.00  0.00    -0.020 C 
BRANCH  21  22
ATOM     22  N   UNL     1       3.714  -1.908   0.808  0.00  0.00    +0.385 N 
ATOM     23  C   UNL     1       3.271  -1.518   2.151  0.00  0.00    -0.078 C 
ATOM     24  C   UNL     1       3.198  -2.756   3.048  0.00  0.00    -0.019 C 
ATOM     25  C   UNL     1       4.584  -3.401   3.133  0.00  0.00    -0.004 C 
ATOM     26  C   UNL     1       5.068  -3.736   1.719  0.00  0.00    -0.019 C 
ATOM     27  C   UNL     1       5.072  -2.462   0.872  0.00  0.00    -0.078 C 
ATOM     28  H   UNL     1       3.085  -2.605   0.438  0.00  0.00    -0.081 HD
ENDBRANCH  21  22
BRANCH  21  32
ATOM     29  C   UNL     1      -0.211   0.966  -0.153  0.00  0.00    +0.000 A 
ATOM     30  C   UNL     1       0.898   1.790  -0.114  0.00  0.00    +0.000 A 
ATOM     31  C   UNL     1       2.166   1.242  -0.086  0.00  0.00    +0.002 A 
ATOM     32  C   UNL     1       2.326  -0.132  -0.098  0.00  0.00    -0.059 A 
ATOM     33  C   UNL     1       1.217  -0.956  -0.137  0.00  0.00    +0.002 A 
ATOM     34  C   UNL     1      -0.052  -0.407  -0.165  0.00  0.00    +0.000 A 
ENDBRANCH  21  32
ENDBRANCH  20  21
ENDBRANCH   1  20
TORSDOF 7
