REMARK  Name = ZINC54541593
REMARK  8 active torsions:
REMARK  status: ('A' for Active; 'I' for Inactive)
REMARK    1  A    between atoms: C_1  and  C_2
REMARK    2  A    between atoms: C_5  and  N_9
REMARK    3  A    between atoms: C_6  and  C_8
REMARK    4  A    between atoms: C_11  and  N_30
REMARK    5  A    between atoms: C_12  and  N_16
REMARK    6  A    between atoms: N_19  and  C_22
REMARK    7  A    between atoms: C_26  and  C_29
REMARK    8  A    between atoms: C_27  and  C_28
REMARK                            x       y       z     vdW  Elec       q    Type
REMARK                         _______ _______ _______ _____ _____    ______ ____
ROOT
ATOM      1  N   UNL     1       2.360  -4.022  -2.392  0.00  0.00    -0.298 N 
ATOM      2  C   UNL     1       1.205  -4.790  -2.299  0.00  0.00    +0.149 A 
ATOM      3  C   UNL     1       1.282  -6.184  -2.257  0.00  0.00    +0.106 A 
ATOM      4  C   UNL     1       0.091  -6.907  -2.163  0.00  0.00    +0.147 A 
ATOM      5  N   UNL     1      -1.063  -6.245  -2.116  0.00  0.00    -0.219 NA
ATOM      6  C   UNL     1      -1.091  -4.929  -2.158  0.00  0.00    +0.225 A 
ATOM      7  N   UNL     1       0.009  -4.209  -2.242  0.00  0.00    -0.219 NA
ATOM      8  H   UNL     1       3.231  -4.447  -2.334  0.00  0.00    +0.154 HD
ENDROOT
BRANCH   1  13
ATOM      9  C   UNL     1       1.982   1.591  -3.108  0.00  0.00    +0.044 C 
ATOM     10  C   UNL     1       2.083   0.099  -2.918  0.00  0.00    -0.050 A 
ATOM     11  C   UNL     1       1.063  -0.723  -3.362  0.00  0.00    +0.005 A 
ATOM     12  C   UNL     1       1.152  -2.090  -3.189  0.00  0.00    +0.024 A 
ATOM     13  C   UNL     1       2.268  -2.639  -2.569  0.00  0.00    +0.035 A 
ATOM     14  C   UNL     1       3.290  -1.810  -2.125  0.00  0.00    -0.029 A 
ATOM     15  C   UNL     1       3.197  -0.444  -2.305  0.00  0.00    +0.008 A 
ATOM     16  C   UNL     1       4.501  -2.402  -1.451  0.00  0.00    +0.045 C 
ENDBRANCH   1  13
BRANCH   4  17
ATOM     17  N   UNL     1       0.111  -8.296  -2.119  0.00  0.00    -0.311 N 
ATOM     18  C   UNL     1       0.285  -9.001  -0.841  0.00  0.00    +0.125 C 
ATOM     19  C   UNL     1      -0.885  -9.975  -0.655  0.00  0.00    +0.124 C 
ATOM     20  N   UNL     1      -1.039 -10.764  -1.885  0.00  0.00    -0.327 N 
ATOM     21  C   UNL     1      -1.214 -10.059  -3.162  0.00  0.00    +0.124 C 
ATOM     22  C   UNL     1      -0.049  -9.086  -3.348  0.00  0.00    +0.125 C 
BRANCH  20  23
ATOM     23  C   UNL     1      -1.020 -12.160  -1.841  0.00  0.00    +0.033 A 
ATOM     24  C   UNL     1      -2.202 -12.868  -1.667  0.00  0.00    +0.023 A 
ATOM     25  C   UNL     1      -2.179 -14.248  -1.624  0.00  0.00    +0.002 A 
ATOM     26  C   UNL     1      -0.981 -14.926  -1.753  0.00  0.00    +0.004 A 
ATOM     27  C   UNL     1       0.198 -14.225  -1.925  0.00  0.00    -0.046 A 
ATOM     28  C   UNL     1       0.182 -12.844  -1.975  0.00  0.00    -0.027 A 
ATOM     29  C   UNL     1       1.467 -12.081  -2.170  0.00  0.00    +0.046 C 
ATOM     30  C   UNL     1       1.502 -14.967  -2.064  0.00  0.00    +0.044 C 
ENDBRANCH  20  23
ENDBRANCH   4  17
BRANCH   3  31
ATOM     31  N   UNL     1       2.522  -6.840  -2.309  0.00  0.00    -0.353 N 
ATOM     32  H   UNL     1       3.344  -6.325  -2.293  0.00  0.00    +0.143 HD
ATOM     33  H   UNL     1       2.557  -7.808  -2.362  0.00  0.00    +0.143 HD
ENDBRANCH   3  31
TORSDOF 4
