REMARK  Name = ZINC36303703
REMARK  15 active torsions:
REMARK  status: ('A' for Active; 'I' for Inactive)
REMARK    1  A    between atoms: C_1  and  C_2
REMARK    2  A    between atoms: C_3  and  C_21
REMARK    3  A    between atoms: C_4  and  O_13
REMARK    4  A    between atoms: N_5  and  C_7
REMARK    5  A    between atoms: O_13  and  C_14
REMARK    6  A    between atoms: C_21  and  N_22
REMARK    7  A    between atoms: N_22  and  C_23
REMARK    8  A    between atoms: N_22  and  C_31
REMARK    9  A    between atoms: C_23  and  C_24
REMARK   10  A    between atoms: C_24  and  C_26
REMARK   11  A    between atoms: C_24  and  O_30
REMARK   12  A    between atoms: C_26  and  C_27
REMARK   13  A    between atoms: C_27  and  C_28
REMARK   14  A    between atoms: C_31  and  C_32
REMARK   15  A    between atoms: C_31  and  C_33
REMARK                            x       y       z     vdW  Elec       q    Type
REMARK                         _______ _______ _______ _____ _____    ______ ____
ROOT
ATOM      1  C   UNL     1       2.502   2.912  -0.689  0.00  0.00    +0.068 C 
ATOM      2  C   UNL     1       1.646   1.756  -0.239  0.00  0.00    +0.065 A 
ATOM      3  C   UNL     1       0.962   0.871  -1.077  0.00  0.00    +0.021 A 
ATOM      4  C   UNL     1       0.308  -0.027  -0.293  0.00  0.00    +0.225 A 
ATOM      5  N   UNL     1       0.578   0.290   1.002  0.00  0.00    -0.200 N 
ATOM      6  N   UNL     1       1.422   1.408   1.002  0.00  0.00    -0.168 NA
ENDROOT
BRANCH   5   7
ATOM      7  C   UNL     1       0.100  -0.385   2.134  0.00  0.00    +0.069 A 
ATOM      8  C   UNL     1      -1.216  -0.826   2.177  0.00  0.00    +0.028 A 
ATOM      9  C   UNL     1      -1.684  -1.491   3.294  0.00  0.00    +0.002 A 
ATOM     10  C   UNL     1      -0.843  -1.716   4.369  0.00  0.00    +0.000 A 
ATOM     11  C   UNL     1       0.468  -1.277   4.329  0.00  0.00    +0.002 A 
ATOM     12  C   UNL     1       0.943  -0.618   3.212  0.00  0.00    +0.028 A 
ENDBRANCH   5   7
BRANCH   4  13
ATOM     13  O   UNL     1      -0.471  -1.052  -0.723  0.00  0.00    -0.438 OA
BRANCH  13  14
ATOM     14  C   UNL     1      -1.777  -0.791  -0.991  0.00  0.00    +0.130 A 
ATOM     15  C   UNL     1      -2.295   0.475  -0.758  0.00  0.00    +0.048 A 
ATOM     16  C   UNL     1      -3.623   0.738  -1.032  0.00  0.00    +0.023 A 
ATOM     17  C   UNL     1      -4.437  -0.260  -1.537  0.00  0.00    +0.041 A 
ATOM     18  C   UNL     1      -3.923  -1.524  -1.769  0.00  0.00    +0.023 A 
ATOM     19  C   UNL     1      -2.594  -1.789  -1.502  0.00  0.00    +0.048 A 
ATOM     20 CL   UNL     1      -6.106   0.073  -1.879  0.00  0.00    -0.084 Cl
ENDBRANCH  13  14
ENDBRANCH   4  13
BRANCH   3  21
ATOM     21  C   UNL     1       0.951   0.905  -2.584  0.00  0.00    -0.035 C 
BRANCH  21  22
ATOM     22  N   UNL     1       2.314   0.695  -3.089  0.00  0.00    +0.386 N 
ATOM     23  H   UNL     1       2.949   1.318  -2.613  0.00  0.00    -0.081 HD
BRANCH  22  24
ATOM     24  C   UNL     1       2.718  -0.696  -2.844  0.00  0.00    -0.074 C 
ATOM     25  C   UNL     1       2.869  -0.925  -1.339  0.00  0.00    -0.014 C 
ATOM     26  C   UNL     1       1.651  -1.642  -3.399  0.00  0.00    -0.014 C 
ENDBRANCH  22  24
BRANCH  22  27
ATOM     27  C   UNL     1       2.349   0.968  -4.532  0.00  0.00    -0.046 C 
BRANCH  27  28
ATOM     28  C   UNL     1       3.799   0.941  -5.021  0.00  0.00    +0.098 C 
BRANCH  28  29
ATOM     29  O   UNL     1       4.305  -0.393  -4.938  0.00  0.00    -0.394 OA
ATOM     30  H   UNL     1       3.864  -1.018  -5.530  0.00  0.00    +0.210 HD
ENDBRANCH  28  29
BRANCH  28  31
ATOM     31  C   UNL     1       3.856   1.419  -6.473  0.00  0.00    +0.033 C 
BRANCH  31  32
ATOM     32  C   UNL     1       5.315   1.511  -6.923  0.00  0.00    +0.029 C 
BRANCH  32  33
ATOM     33  C   UNL     1       5.372   1.982  -8.353  0.00  0.00    -0.034 C 
ATOM     34  C   UNL     1       6.080   3.038  -8.668  0.00  0.00    +0.004 C 
ENDBRANCH  32  33
ENDBRANCH  31  32
ENDBRANCH  28  31
ENDBRANCH  27  28
ENDBRANCH  22  27
ENDBRANCH  21  22
ENDBRANCH   3  21
TORSDOF 12
