REMARK  Name = ZINC21602807
REMARK  4 active torsions:
REMARK  status: ('A' for Active; 'I' for Inactive)
REMARK    1  A    between atoms: C_7  and  C_14
REMARK    2  A    between atoms: C_14  and  O_16
REMARK    3  A    between atoms: O_16  and  C_17
REMARK    4  A    between atoms: C_17  and  C_18
REMARK                            x       y       z     vdW  Elec       q    Type
REMARK                         _______ _______ _______ _____ _____    ______ ____
ROOT
ATOM      1  C   UNL     1      -2.921   3.218  -5.334  0.00  0.00    +0.001 A 
ATOM      2  C   UNL     1      -1.631   2.811  -5.667  0.00  0.00    +0.002 A 
ATOM      3  C   UNL     1      -0.787   2.312  -4.724  0.00  0.00    +0.028 A 
ATOM      4  C   UNL     1      -1.217   2.203  -3.389  0.00  0.00    +0.072 A 
ATOM      5  C   UNL     1      -2.529   2.620  -3.055  0.00  0.00    +0.015 A 
ATOM      6  C   UNL     1      -3.372   3.128  -4.051  0.00  0.00    +0.011 A 
ATOM      7  C   UNL     1      -2.957   2.509  -1.708  0.00  0.00    +0.073 A 
ATOM      8  C   UNL     1      -2.060   1.995  -0.779  0.00  0.00    -0.012 A 
ATOM      9  C   UNL     1      -0.785   1.608  -1.188  0.00  0.00    +0.046 A 
ATOM     10  N   UNL     1      -0.410   1.718  -2.444  0.00  0.00    -0.251 NA
ATOM     11  C   UNL     1      -0.013   1.086   0.008  0.00  0.00    +0.056 C 
ATOM     12  C   UNL     1      -0.775   1.603   1.245  0.00  0.00    +0.011 C 
ATOM     13  C   UNL     1      -2.216   1.759   0.707  0.00  0.00    +0.038 C 
ENDROOT
BRANCH   7  14
ATOM     14  C   UNL     1      -4.316   2.928  -1.304  0.00  0.00    +0.341 C 
ATOM     15  O   UNL     1      -4.518   4.071  -0.945  0.00  0.00    -0.245 OA
BRANCH  14  16
ATOM     16  O   UNL     1      -5.330   2.042  -1.333  0.00  0.00    -0.455 OA
BRANCH  16  17
ATOM     17  C   UNL     1      -6.638   2.523  -0.923  0.00  0.00    +0.291 C 
BRANCH  17  18
ATOM     18  C   UNL     1      -7.639   1.401  -1.020  0.00  0.00    +0.128 A 
ATOM     19  C   UNL     1      -8.365   1.150  -2.146  0.00  0.00    +0.124 A 
ATOM     20  S   UNL     1      -9.300  -0.218  -1.640  0.00  0.00    +0.049 S 
ATOM     21  N   UNL     1      -8.759  -0.360  -0.163  0.00  0.00    -0.109 NA
ATOM     22  N   UNL     1      -7.894   0.579  -0.024  0.00  0.00    -0.141 NA
ATOM     23 CL   UNL     1      -8.355   1.976  -3.672  0.00  0.00    -0.072 Cl
ENDBRANCH  17  18
ENDBRANCH  16  17
ENDBRANCH  14  16
ENDBRANCH   7  14
TORSDOF 4
