REMARK  Name = ZINC05288012
REMARK  9 active torsions:
REMARK  status: ('A' for Active; 'I' for Inactive)
REMARK    1  A    between atoms: C_1  and  C_2
REMARK    2  A    between atoms: C_2  and  C_21
REMARK    3  A    between atoms: N_3  and  N_4
REMARK    4  A    between atoms: C_5  and  C_7
REMARK    5  A    between atoms: C_7  and  C_8
REMARK    6  A    between atoms: C_7  and  C_14
REMARK    7  A    between atoms: C_7  and  O_20
REMARK    8  A    between atoms: C_24  and  O_28
REMARK    9  A    between atoms: C_26  and  O_27
REMARK                            x       y       z     vdW  Elec       q    Type
REMARK                         _______ _______ _______ _____ _____    ______ ____
ROOT
ATOM      1  N   UNL     1      -0.351   0.847   2.488  0.00  0.00    -0.204 N 
ATOM      2  C   UNL     1      -0.232  -0.176   3.357  0.00  0.00    +0.273 C 
ATOM      3  O   UNL     1      -0.349  -1.319   2.969  0.00  0.00    -0.270 OA
ATOM      4  H   UNL     1      -0.257   1.761   2.798  0.00  0.00    +0.177 HD
ENDROOT
BRANCH   1   7
ATOM      5  C   UNL     1      -0.578   2.995   0.779  0.00  0.00    +0.068 C 
ATOM      6  C   UNL     1      -0.724   1.575   0.297  0.00  0.00    +0.067 C 
ATOM      7  N   UNL     1      -0.610   0.590   1.135  0.00  0.00    -0.184 NA
BRANCH   6   8
ATOM      8  C   UNL     1      -0.996   1.304  -1.125  0.00  0.00    +0.039 A 
ATOM      9  C   UNL     1      -1.114   2.362  -2.030  0.00  0.00    +0.017 A 
ATOM     10  C   UNL     1      -1.368   2.105  -3.360  0.00  0.00    +0.046 A 
ATOM     11  C   UNL     1      -1.509   0.795  -3.804  0.00  0.00    +0.120 A 
ATOM     12  C   UNL     1      -1.394  -0.262  -2.913  0.00  0.00    +0.091 A 
ATOM     13  C   UNL     1      -1.132  -0.016  -1.577  0.00  0.00    +0.129 A 
BRANCH  13  14
ATOM     14  O   UNL     1      -1.013  -1.050  -0.705  0.00  0.00    -0.506 OA
ATOM     15  H   UNL     1      -1.847  -1.315  -0.293  0.00  0.00    +0.292 HD
ENDBRANCH  13  14
BRANCH  11  16
ATOM     16  O   UNL     1      -1.760   0.550  -5.117  0.00  0.00    -0.507 OA
ATOM     17  H   UNL     1      -0.965   0.440  -5.655  0.00  0.00    +0.292 HD
ENDBRANCH  11  16
ENDBRANCH   6   8
ENDBRANCH   1   7
BRANCH   2  18
ATOM     18  C   UNL     1       0.046   0.101   4.812  0.00  0.00    +0.194 C 
BRANCH  18  19
ATOM     19  C   UNL     1      -0.458  -1.048   5.648  0.00  0.00    -0.003 A 
ATOM     20  C   UNL     1      -1.508  -0.856   6.526  0.00  0.00    +0.007 A 
ATOM     21  C   UNL     1      -1.970  -1.909   7.292  0.00  0.00    +0.000 A 
ATOM     22  C   UNL     1      -1.382  -3.155   7.179  0.00  0.00    +0.000 A 
ATOM     23  C   UNL     1      -0.332  -3.348   6.301  0.00  0.00    +0.000 A 
ATOM     24  C   UNL     1       0.127  -2.295   5.531  0.00  0.00    +0.007 A 
ENDBRANCH  18  19
BRANCH  18  25
ATOM     25  C   UNL     1       1.531   0.259   5.019  0.00  0.00    -0.003 A 
ATOM     26  C   UNL     1       2.413  -0.569   4.350  0.00  0.00    +0.007 A 
ATOM     27  C   UNL     1       3.775  -0.424   4.540  0.00  0.00    +0.000 A 
ATOM     28  C   UNL     1       4.254   0.549   5.397  0.00  0.00    +0.000 A 
ATOM     29  C   UNL     1       3.371   1.377   6.064  0.00  0.00    +0.000 A 
ATOM     30  C   UNL     1       2.010   1.235   5.872  0.00  0.00    +0.007 A 
ENDBRANCH  18  25
BRANCH  18  31
ATOM     31  O   UNL     1      -0.620   1.303   5.205  0.00  0.00    -0.371 OA
ATOM     32  H   UNL     1      -1.581   1.273   5.098  0.00  0.00    +0.212 HD
ENDBRANCH  18  31
ENDBRANCH   2  18
TORSDOF 8
