REMARK  Name = ZINC22919680
REMARK  6 active torsions:
REMARK  status: ('A' for Active; 'I' for Inactive)
REMARK    1  A    between atoms: C_3  and  C_6
REMARK    2  A    between atoms: C_15  and  C_17
REMARK    3  A    between atoms: C_17  and  N_18
REMARK    4  A    between atoms: N_21  and  C_24
REMARK    5  A    between atoms: C_24  and  C_25
REMARK    6  A    between atoms: C_28  and  C_31
REMARK                            x       y       z     vdW  Elec       q    Type
REMARK                         _______ _______ _______ _____ _____    ______ ____
ROOT
ATOM      1  C   UNL     1       0.248  -4.713  -4.979  0.00  0.00    -0.003 C 
ENDROOT
BRANCH   1  11
ATOM      2  C   UNL     1       1.334 -10.307  -4.835  0.00  0.00    +0.039 A 
ATOM      3  C   UNL     1       1.410 -10.788  -3.568  0.00  0.00    +0.059 A 
ATOM      4  S   UNL     1       1.116  -9.347  -2.562  0.00  0.00    -0.076 S 
ATOM      5  C   UNL     1       0.900  -8.145  -3.849  0.00  0.00    +0.116 A 
ATOM      6  C   UNL     1       1.061  -8.887  -5.030  0.00  0.00    +0.083 A 
ATOM      7  C   UNL     1       0.934  -8.149  -6.249  0.00  0.00    +0.260 A 
ATOM      8  O   UNL     1       1.058  -8.707  -7.326  0.00  0.00    -0.267 OA
ATOM      9  N   UNL     1       0.672  -6.830  -6.188  0.00  0.00    -0.312 N 
ATOM     10  H   UNL     1       0.563  -6.248  -7.115  0.00  0.00    +0.170 HD
ATOM     11  C   UNL     1       0.537  -6.192  -4.998  0.00  0.00    +0.094 A 
ATOM     12  N   UNL     1       0.646  -6.839  -3.869  0.00  0.00    -0.229 NA
BRANCH   2  15
ATOM     13  C   UNL     1       2.336 -12.720  -7.403  0.00  0.00    +0.042 A 
ATOM     14  C   UNL     1       2.558 -12.069  -6.172  0.00  0.00    +0.050 A 
ATOM     15  C   UNL     1       1.524 -11.204  -5.993  0.00  0.00    +0.136 A 
ATOM     16  O   UNL     1       0.707 -11.302  -7.059  0.00  0.00    -0.463 OA
ATOM     17  C   UNL     1       1.195 -12.218  -7.914  0.00  0.00    +0.196 A 
ENDBRANCH   2  15
ENDBRANCH   1  11
BRANCH   1  18
ATOM     18  N   UNL     1       0.279  -4.225  -3.594  0.00  0.00    +0.386 N 
ATOM     19  C   UNL     1       1.635  -4.313  -3.034  0.00  0.00    -0.063 C 
ATOM     20  C   UNL     1       1.609  -3.873  -1.569  0.00  0.00    +0.066 C 
ATOM     21  N   UNL     1       1.094  -2.498  -1.482  0.00  0.00    -0.302 NA
ATOM     22  C   UNL     1      -0.262  -2.411  -2.042  0.00  0.00    +0.066 C 
ATOM     23  C   UNL     1      -0.235  -2.852  -3.507  0.00  0.00    -0.063 C 
ATOM     24  H   UNL     1      -0.379  -4.873  -2.994  0.00  0.00    -0.081 HD
BRANCH  21  25
ATOM     25  C   UNL     1       1.125  -2.011  -0.097  0.00  0.00    +0.119 C 
BRANCH  25  26
ATOM     26  C   UNL     1       0.827  -0.534  -0.077  0.00  0.00    -0.033 A 
ATOM     27  C   UNL     1      -0.480  -0.096   0.041  0.00  0.00    +0.006 A 
ATOM     28  C   UNL     1      -0.759   1.254   0.060  0.00  0.00    +0.019 A 
ATOM     29  C   UNL     1       0.281   2.181  -0.040  0.00  0.00    +0.052 A 
ATOM     30  C   UNL     1       1.598   1.732  -0.159  0.00  0.00    +0.019 A 
ATOM     31  C   UNL     1       1.863   0.378  -0.177  0.00  0.00    +0.006 A 
BRANCH  29  32
ATOM     32  C   UNL     1      -0.002   3.584  -0.021  0.00  0.00    +0.099 C 
ATOM     33  N   UNL     1      -0.226   4.698  -0.005  0.00  0.00    -0.191 NA
ENDBRANCH  29  32
ENDBRANCH  25  26
ENDBRANCH  21  25
ENDBRANCH   1  18
TORSDOF 6
