REMARK  Name = ZINC05377050
REMARK  8 active torsions:
REMARK  status: ('A' for Active; 'I' for Inactive)
REMARK    1  A    between atoms: C_1  and  C_2
REMARK    2  A    between atoms: C_15  and  C_17
REMARK    3  A    between atoms: C_19  and  O_27
REMARK    4  A    between atoms: C_20  and  O_25
REMARK    5  A    between atoms: C_21  and  O_23
REMARK    6  A    between atoms: O_23  and  C_24
REMARK    7  A    between atoms: O_25  and  C_26
REMARK    8  A    between atoms: O_27  and  C_28
REMARK                            x       y       z     vdW  Elec       q    Type
REMARK                         _______ _______ _______ _____ _____    ______ ____
ROOT
ATOM      1  C   UNL     1      -2.073   0.843   1.407  0.00  0.00    -0.013 C 
ATOM      2  C   UNL     1      -0.745   1.588   1.260  0.00  0.00    -0.069 C 
ATOM      3  C   UNL     1      -0.013   1.086   0.008  0.00  0.00    +0.021 C 
ATOM      4  C   UNL     1      -0.756   1.592  -1.203  0.00  0.00    -0.022 A 
ATOM      5  C   UNL     1      -0.663   1.164  -2.580  0.00  0.00    +0.003 A 
ATOM      6  C   UNL     1       0.105   0.189  -3.224  0.00  0.00    +0.010 A 
ATOM      7  C   UNL     1      -0.070   0.053  -4.579  0.00  0.00    +0.001 A 
ATOM      8  C   UNL     1      -0.964   0.839  -5.288  0.00  0.00    +0.002 A 
ATOM      9  C   UNL     1      -1.737   1.812  -4.677  0.00  0.00    +0.026 A 
ATOM     10  C   UNL     1      -1.581   1.972  -3.302  0.00  0.00    +0.047 A 
ATOM     11  N   UNL     1      -2.171   2.817  -2.406  0.00  0.00    -0.359 N 
ATOM     12  H   UNL     1      -2.843   3.481  -2.626  0.00  0.00    +0.166 HD
ATOM     13  C   UNL     1      -1.672   2.586  -1.154  0.00  0.00    +0.010 A 
ATOM     14  C   UNL     1      -2.045   3.300   0.124  0.00  0.00    +0.008 C 
ATOM     15  N   UNL     1      -0.998   3.038   1.137  0.00  0.00    +0.389 N 
ATOM     16  H   UNL     1      -0.131   3.510   0.856  0.00  0.00    -0.084 HD
ATOM     17  H   UNL     1      -1.308   3.405   2.045  0.00  0.00    -0.084 HD
ENDROOT
BRANCH  14  18
ATOM     18  C   UNL     1      -2.134   4.782  -0.131  0.00  0.00    -0.049 A 
ATOM     19  C   UNL     1      -0.982   5.545  -0.173  0.00  0.00    +0.052 A 
ATOM     20  C   UNL     1      -1.059   6.908  -0.413  0.00  0.00    +0.165 A 
ATOM     21  C   UNL     1      -2.298   7.510  -0.601  0.00  0.00    +0.204 A 
ATOM     22  C   UNL     1      -3.454   6.740  -0.552  0.00  0.00    +0.165 A 
ATOM     23  C   UNL     1      -3.368   5.376  -0.318  0.00  0.00    +0.052 A 
BRANCH  22  24
ATOM     24  O   UNL     1      -4.669   7.324  -0.736  0.00  0.00    -0.491 OA
ATOM     25  C   UNL     1      -5.814   6.472  -0.673  0.00  0.00    +0.277 C 
ENDBRANCH  22  24
BRANCH  21  26
ATOM     26  O   UNL     1      -2.379   8.849  -0.832  0.00  0.00    -0.488 OA
ATOM     27  C   UNL     1      -2.505   9.697   0.311  0.00  0.00    +0.277 C 
ENDBRANCH  21  26
BRANCH  20  28
ATOM     28  O   UNL     1       0.075   7.657  -0.459  0.00  0.00    -0.491 OA
ATOM     29  C   UNL     1       1.313   6.972  -0.258  0.00  0.00    +0.277 C 
ENDBRANCH  20  28
ENDBRANCH  14  18
TORSDOF 4
