REMARK  Name = ZINC09264162
REMARK  3 active torsions:
REMARK  status: ('A' for Active; 'I' for Inactive)
REMARK    1  A    between atoms: C_4  and  C_7
REMARK    2  A    between atoms: C_24  and  C_26
REMARK    3  A    between atoms: C_26  and  C_27
REMARK                            x       y       z     vdW  Elec       q    Type
REMARK                         _______ _______ _______ _____ _____    ______ ____
ROOT
ATOM      1  C   UNL     1       3.945   5.676  -3.042  0.00  0.00    +0.147 C 
ATOM      2  C   UNL     1       3.666   7.067  -3.562  0.00  0.00    +0.037 C 
ATOM      3  C   UNL     1       3.384   8.146  -2.815  0.00  0.00    +0.017 C 
ATOM      4  C   UNL     1       3.123   9.492  -3.472  0.00  0.00    +0.051 C 
ATOM      5  C   UNL     1       3.936   9.612  -4.759  0.00  0.00    +0.014 C 
ATOM      6  C   UNL     1       3.509   8.469  -5.689  0.00  0.00    +0.080 C 
ATOM      7  C   UNL     1       3.725   7.170  -4.972  0.00  0.00    +0.163 C 
ATOM      8  O   UNL     1       3.960   6.172  -5.625  0.00  0.00    -0.292 OA
ATOM      9  N   UNL     1       3.285   8.153  -1.460  0.00  0.00    -0.316 N 
ATOM     10  C   UNL     1       4.200   7.568  -0.591  0.00  0.00    +0.053 A 
ATOM     11  C   UNL     1       4.942   8.307   0.313  0.00  0.00    +0.025 A 
ATOM     12  C   UNL     1       5.788   7.652   1.191  0.00  0.00    +0.002 A 
ATOM     13  C   UNL     1       5.886   6.272   1.164  0.00  0.00    +0.002 A 
ATOM     14  C   UNL     1       5.163   5.535   0.243  0.00  0.00    +0.025 A 
ATOM     15  C   UNL     1       4.330   6.194  -0.656  0.00  0.00    +0.058 A 
ATOM     16  N   UNL     1       3.636   5.491  -1.640  0.00  0.00    -0.258 N 
ATOM     17  C   UNL     1       2.663   4.631  -1.281  0.00  0.00    +0.225 C 
ATOM     18  O   UNL     1       2.051   4.019  -2.131  0.00  0.00    -0.275 OA
ATOM     19  H   UNL     1       2.518   8.600  -1.068  0.00  0.00    +0.152 HD
ENDROOT
BRANCH   1  23
ATOM     20  C   UNL     1       8.083   4.807  -3.647  0.00  0.00    +0.000 A 
ATOM     21  C   UNL     1       7.119   4.088  -4.329  0.00  0.00    +0.000 A 
ATOM     22  C   UNL     1       5.780   4.370  -4.133  0.00  0.00    +0.006 A 
ATOM     23  C   UNL     1       5.405   5.369  -3.255  0.00  0.00    -0.022 A 
ATOM     24  C   UNL     1       6.369   6.092  -2.577  0.00  0.00    +0.006 A 
ATOM     25  C   UNL     1       7.708   5.807  -2.770  0.00  0.00    +0.000 A 
ENDBRANCH   1  23
BRANCH  17  26
ATOM     26  C   UNL     1       2.333   4.430   0.176  0.00  0.00    +0.138 C 
BRANCH  26  27
ATOM     27  C   UNL     1       1.217   3.426   0.305  0.00  0.00    -0.001 A 
ATOM     28  C   UNL     1       1.292   2.079   0.430  0.00  0.00    +0.011 A 
ATOM     29  C   UNL     1       0.122   1.349   0.534  0.00  0.00    +0.008 A 
ATOM     30  C   UNL     1      -1.065   2.003   0.502  0.00  0.00    +0.045 A 
ATOM     31  S   UNL     1      -0.546   3.703   0.331  0.00  0.00    -0.101 S 
ENDBRANCH  26  27
ENDBRANCH  17  26
TORSDOF 3
