REMARK  Name = ZINC11206422
REMARK  11 active torsions:
REMARK  status: ('A' for Active; 'I' for Inactive)
REMARK    1  A    between atoms: C_1  and  C_2
REMARK    2  A    between atoms: C_2  and  O_3
REMARK    3  A    between atoms: O_3  and  C_4
REMARK    4  A    between atoms: C_4  and  C_6
REMARK    5  A    between atoms: C_10  and  N_11
REMARK    6  A    between atoms: C_12  and  C_14
REMARK    7  A    between atoms: C_14  and  S_15
REMARK    8  A    between atoms: S_15  and  C_16
REMARK    9  A    between atoms: C_19  and  C_24
REMARK   10  A    between atoms: N_22  and  N_23
REMARK   11  A    between atoms: C_26  and  C_30
REMARK                            x       y       z     vdW  Elec       q    Type
REMARK                         _______ _______ _______ _____ _____    ______ ____
ROOT
ATOM      1  N   UNL     1      -1.491  -0.852  -2.475  0.00  0.00    -0.279 N 
ATOM      2  C   UNL     1      -2.243  -1.282  -3.508  0.00  0.00    +0.228 C 
ATOM      3  O   UNL     1      -3.268  -1.896  -3.298  0.00  0.00    -0.275 OA
ATOM      4  H   UNL     1      -0.671  -0.362  -2.643  0.00  0.00    +0.155 HD
ENDROOT
BRANCH   1   9
ATOM      5  C   UNL     1      -1.256  -0.753   0.010  0.00  0.00    +0.091 A 
ATOM      6  C   UNL     1      -1.892  -1.146   1.257  0.00  0.00    -0.021 A 
ATOM      7  C   UNL     1      -3.047  -1.832   1.122  0.00  0.00    -0.004 A 
ATOM      8  S   UNL     1      -3.297  -1.960  -0.626  0.00  0.00    -0.077 S 
ATOM      9  C   UNL     1      -1.889  -1.111  -1.173  0.00  0.00    +0.086 A 
ATOM     10  C   UNL     1      -3.917  -2.361   2.220  0.00  0.00    +0.046 C 
ATOM     11  C   UNL     1      -3.500  -1.686   3.535  0.00  0.00    -0.009 C 
ATOM     12  C   UNL     1      -1.975  -1.754   3.662  0.00  0.00    +0.008 C 
ATOM     13  C   UNL     1      -1.325  -0.826   2.634  0.00  0.00    +0.037 C 
ATOM     14  C   UNL     1      -4.149  -2.414   4.714  0.00  0.00    +0.008 C 
BRANCH   5  15
ATOM     15  C   UNL     1       0.002  -0.004   0.002  0.00  0.00    +0.342 C 
ATOM     16  O   UNL     1       1.064  -0.598  -0.011  0.00  0.00    -0.245 OA
BRANCH  15  17
ATOM     17  O   UNL     1      -0.016   1.345   0.009  0.00  0.00    -0.461 OA
BRANCH  17  19
ATOM     18  C   UNL     1       1.047   3.535   0.011  0.00  0.00    +0.048 C 
ATOM     19  C   UNL     1       1.268   2.021   0.001  0.00  0.00    +0.229 C 
ENDBRANCH  17  19
ENDBRANCH  15  17
ENDBRANCH   5  15
ENDBRANCH   1   9
BRANCH   2  20
ATOM     20  C   UNL     1      -1.810  -1.002  -4.924  0.00  0.00    +0.173 C 
BRANCH  20  21
ATOM     21  S   UNL     1      -3.018  -1.702  -6.075  0.00  0.00    -0.075 S 
BRANCH  21  22
ATOM     22  C   UNL     1      -2.284  -1.240  -7.608  0.00  0.00    +0.210 A 
ATOM     23  N   UNL     1      -1.150  -0.559  -7.615  0.00  0.00    -0.122 NA
ATOM     24  N   UNL     1      -0.575  -0.205  -8.708  0.00  0.00    -0.146 NA
ATOM     25  C   UNL     1      -1.093  -0.493  -9.879  0.00  0.00    +0.126 A 
ATOM     26  C   UNL     1      -2.305  -1.214  -9.943  0.00  0.00    +0.293 A 
ATOM     27  O   UNL     1      -2.811  -1.496 -11.016  0.00  0.00    -0.264 OA
ATOM     28  N   UNL     1      -2.891  -1.581  -8.780  0.00  0.00    -0.206 N 
ATOM     29  C   UNL     1      -0.399  -0.060 -11.145  0.00  0.00    +0.073 C 
BRANCH  28  30
ATOM     30  N   UNL     1      -4.065  -2.279  -8.780  0.00  0.00    -0.293 N 
ATOM     31  H   UNL     1      -4.383  -2.453  -9.722  0.00  0.00    +0.163 HD
ATOM     32  H   UNL     1      -3.973  -3.142  -8.265  0.00  0.00    +0.163 HD
ENDBRANCH  28  30
ENDBRANCH  21  22
ENDBRANCH  20  21
ENDBRANCH   2  20
TORSDOF 8
