REMARK  Name = ZINC43736877
REMARK  7 active torsions:
REMARK  status: ('A' for Active; 'I' for Inactive)
REMARK    1  A    between atoms: C_1  and  C_2
REMARK    2  A    between atoms: C_13  and  O_15
REMARK    3  A    between atoms: N_21  and  O_22
REMARK    4  A    between atoms: O_22  and  C_23
REMARK    5  A    between atoms: C_23  and  C_24
REMARK    6  A    between atoms: N_26  and  C_27
REMARK    7  A    between atoms: C_38  and  C_39
REMARK                            x       y       z     vdW  Elec       q    Type
REMARK                         _______ _______ _______ _____ _____    ______ ____
ROOT
ATOM      1  C   UNL     1      -0.019   1.534   0.011  0.00  0.00    +0.014 C 
ATOM      2  C   UNL     1       0.002  -0.004   0.002  0.00  0.00    -0.003 C 
ATOM      3  C   UNL     1       0.632  -0.444  -1.298  0.00  0.00    +0.010 C 
ATOM      4  C   UNL     1       0.981  -1.932  -1.297  0.00  0.00    +0.005 C 
ATOM      5  C   UNL     1       1.940  -2.200  -0.135  0.00  0.00    +0.002 C 
ATOM      6  C   UNL     1       1.197  -1.935   1.171  0.00  0.00    -0.003 C 
ATOM      7  C   UNL     1       0.749  -0.476   1.254  0.00  0.00    +0.001 C 
ATOM      8  C   UNL     1      -0.324  -0.368   2.370  0.00  0.00    +0.007 C 
ATOM      9  C   UNL     1      -1.674  -0.633   1.677  0.00  0.00    +0.032 C 
ATOM     10  C   UNL     1      -1.442  -0.492   0.161  0.00  0.00    +0.121 C 
ATOM     11  C   UNL     1       0.005  -2.880   1.306  0.00  0.00    +0.008 C 
ATOM     12  C   UNL     1       0.497  -4.329   1.351  0.00  0.00    +0.031 C 
ATOM     13  C   UNL     1       1.365  -4.598   0.138  0.00  0.00    -0.062 C 
ATOM     14  C   UNL     1       1.087  -5.675  -0.588  0.00  0.00    +0.026 C 
ATOM     15  C   UNL     1       1.914  -6.023  -1.755  0.00  0.00    +0.080 C 
ATOM     16  N   UNL     1       1.505  -6.856  -2.658  0.00  0.00    -0.089 NA
ATOM     17  C   UNL     1       3.286  -5.383  -1.829  0.00  0.00    +0.059 C 
ATOM     18  C   UNL     1       3.122  -3.892  -1.539  0.00  0.00    +0.017 C 
ATOM     19  C   UNL     1       2.464  -3.636  -0.194  0.00  0.00    -0.007 C 
ATOM     20  C   UNL     1       3.557  -3.785   0.871  0.00  0.00    +0.016 C 
ENDROOT
BRANCH  10  21
ATOM     21  O   UNL     1      -2.348   0.473  -0.385  0.00  0.00    -0.391 OA
ATOM     22  H   UNL     1      -3.279   0.223  -0.315  0.00  0.00    +0.210 HD
ENDBRANCH  10  21
BRANCH  16  23
ATOM     23  O   UNL     1       0.230  -7.460  -2.539  0.00  0.00    -0.384 OA
BRANCH  23  24
ATOM     24  C   UNL     1      -0.091  -8.356  -3.606  0.00  0.00    +0.358 C 
BRANCH  24  25
ATOM     25  C   UNL     1      -1.462  -8.937  -3.378  0.00  0.00    +0.254 C 
ATOM     26  O   UNL     1      -2.102  -8.616  -2.399  0.00  0.00    -0.272 OA
ATOM     27  N   UNL     1      -1.978  -9.814  -4.262  0.00  0.00    -0.301 N 
ATOM     28  H   UNL     1      -1.466 -10.071  -5.045  0.00  0.00    +0.150 HD
BRANCH  27  29
ATOM     29  C   UNL     1      -3.311 -10.380  -4.041  0.00  0.00    +0.159 C 
ATOM     30  C   UNL     1      -3.913 -10.817  -5.379  0.00  0.00    +0.032 C 
ATOM     31  C   UNL     1      -5.429 -10.831  -5.307  0.00  0.00    +0.004 C 
ATOM     32  C   UNL     1      -5.988 -11.889  -4.373  0.00  0.00    +0.019 C 
ATOM     33  C   UNL     1      -5.631 -11.575  -2.919  0.00  0.00    +0.104 C 
ATOM     34  N   UNL     1      -4.306 -12.144  -2.626  0.00  0.00    -0.314 N 
ATOM     35  C   UNL     1      -3.206 -11.591  -3.138  0.00  0.00    +0.233 C 
ATOM     36  O   UNL     1      -2.119 -12.062  -2.883  0.00  0.00    -0.274 OA
ATOM     37  H   UNL     1      -4.231 -12.924  -2.054  0.00  0.00    +0.149 HD
ENDBRANCH  27  29
ENDBRANCH  24  25
ENDBRANCH  23  24
ENDBRANCH  16  23
TORSDOF 5
