REMARK  Name = ZINC40016265
REMARK  8 active torsions:
REMARK  status: ('A' for Active; 'I' for Inactive)
REMARK    1  A    between atoms: C_1  and  C_2
REMARK    2  A    between atoms: C_5  and  O_9
REMARK    3  A    between atoms: C_7  and  C_8
REMARK    4  A    between atoms: O_9  and  C_10
REMARK    5  A    between atoms: C_11  and  C_21
REMARK    6  A    between atoms: N_25  and  C_29
REMARK    7  A    between atoms: C_29  and  C_31
REMARK    8  A    between atoms: C_29  and  C_32
REMARK                            x       y       z     vdW  Elec       q    Type
REMARK                         _______ _______ _______ _____ _____    ______ ____
ROOT
ATOM      1  C   UNL     1      -0.402  -4.555  -1.056  0.00  0.00    +0.235 A 
ATOM      2  C   UNL     1      -0.053  -5.911  -1.239  0.00  0.00    +0.103 A 
ATOM      3  C   UNL     1       0.225  -6.362  -2.552  0.00  0.00    +0.269 A 
ATOM      4  O   UNL     1       0.530  -7.525  -2.757  0.00  0.00    -0.266 OA
ATOM      5  N   UNL     1       0.146  -5.483  -3.574  0.00  0.00    -0.268 N 
ATOM      6  C   UNL     1       0.412  -5.907  -4.842  0.00  0.00    +0.096 A 
ATOM      7  C   UNL     1       0.342  -5.052  -5.887  0.00  0.00    +0.018 A 
ATOM      8  C   UNL     1      -0.006  -3.711  -5.675  0.00  0.00    +0.005 A 
ATOM      9  C   UNL     1      -0.274  -3.277  -4.411  0.00  0.00    +0.047 A 
ATOM     10  C   UNL     1      -0.197  -4.181  -3.337  0.00  0.00    +0.144 A 
ATOM     11  N   UNL     1      -0.465  -3.749  -2.103  0.00  0.00    -0.194 NA
ENDROOT
BRANCH   2  12
ATOM     12  C   UNL     1       0.018  -6.797  -0.138  0.00  0.00    +0.039 C 
ATOM     13  C   UNL     1       0.834  -6.510   0.917  0.00  0.00    +0.077 C 
ATOM     14  C   UNL     1       0.986  -7.194   2.158  0.00  0.00    +0.259 C 
ATOM     15  O   UNL     1       0.335  -8.193   2.406  0.00  0.00    -0.269 OA
ATOM     16  N   UNL     1       1.853  -6.713   3.032  0.00  0.00    -0.248 N 
ATOM     17  C   UNL     1       2.576  -5.604   2.756  0.00  0.00    +0.121 C 
ATOM     18  S   UNL     1       3.742  -4.814   3.728  0.00  0.00    -0.027 S 
ATOM     19  S   UNL     1       2.009  -5.178   1.117  0.00  0.00    -0.061 S 
BRANCH  16  20
ATOM     20  C   UNL     1       2.035  -7.392   4.317  0.00  0.00    +0.110 C 
ATOM     21  C   UNL     1       0.961  -8.470   4.481  0.00  0.00    +0.033 C 
BRANCH  20  22
ATOM     22  C   UNL     1       3.399  -8.031   4.360  0.00  0.00    -0.027 A 
ATOM     23  C   UNL     1       3.926  -8.613   3.222  0.00  0.00    +0.005 A 
ATOM     24  C   UNL     1       5.177  -9.199   3.261  0.00  0.00    +0.000 A 
ATOM     25  C   UNL     1       5.902  -9.203   4.438  0.00  0.00    +0.000 A 
ATOM     26  C   UNL     1       5.375  -8.620   5.576  0.00  0.00    +0.000 A 
ATOM     27  C   UNL     1       4.126  -8.030   5.536  0.00  0.00    +0.005 A 
ENDBRANCH  20  22
ENDBRANCH  16  20
ENDBRANCH   2  12
BRANCH   1  28
ATOM     28  O   UNL     1      -0.675  -4.084   0.182  0.00  0.00    -0.437 OA
BRANCH  28  33
ATOM     29  C   UNL     1      -2.480   1.231   0.652  0.00  0.00    +0.044 C 
ATOM     30  C   UNL     1      -1.997  -0.191   0.526  0.00  0.00    -0.047 A 
ATOM     31  C   UNL     1      -2.805  -1.145  -0.065  0.00  0.00    +0.007 A 
ATOM     32  C   UNL     1      -2.365  -2.449  -0.181  0.00  0.00    +0.046 A 
ATOM     33  C   UNL     1      -1.110  -2.801   0.295  0.00  0.00    +0.131 A 
ATOM     34  C   UNL     1      -0.301  -1.842   0.887  0.00  0.00    +0.050 A 
ATOM     35  C   UNL     1      -0.744  -0.538   0.996  0.00  0.00    -0.044 A 
ATOM     36  C   UNL     1       0.137   0.505   1.633  0.00  0.00    +0.044 C 
ENDBRANCH  28  33
ENDBRANCH   1  28
TORSDOF 5
