REMARK  Name = ZINC03295660
REMARK  10 active torsions:
REMARK  status: ('A' for Active; 'I' for Inactive)
REMARK    1  A    between atoms: C_1  and  C_2
REMARK    2  A    between atoms: C_2  and  C_4
REMARK    3  A    between atoms: C_2  and  S_16
REMARK    4  A    between atoms: N_6  and  C_7
REMARK    5  A    between atoms: C_11  and  C_13
REMARK    6  A    between atoms: C_13  and  C_15
REMARK    7  A    between atoms: S_16  and  C_17
REMARK    8  A    between atoms: C_20  and  C_23
REMARK    9  A    between atoms: N_21  and  N_22
REMARK   10  A    between atoms: C_23  and  C_24
REMARK                            x       y       z     vdW  Elec       q    Type
REMARK                         _______ _______ _______ _____ _____    ______ ____
ROOT
ATOM      1  C   UNL     1       3.950   1.995  -0.422  0.00  0.00    +0.209 A 
ATOM      2  N   UNL     1       3.892   3.281  -0.167  0.00  0.00    -0.121 NA
ATOM      3  N   UNL     1       5.054   3.809  -0.318  0.00  0.00    -0.132 NA
ATOM      4  C   UNL     1       5.914   2.901  -0.682  0.00  0.00    +0.155 A 
ATOM      5  N   UNL     1       5.242   1.713  -0.762  0.00  0.00    -0.228 N 
ENDROOT
BRANCH   5   6
ATOM      6  N   UNL     1       5.756   0.496  -1.110  0.00  0.00    -0.295 N 
ATOM      7  H   UNL     1       5.693   0.348  -2.106  0.00  0.00    +0.163 HD
ATOM      8  H   UNL     1       6.709   0.401  -0.790  0.00  0.00    +0.163 HD
ENDBRANCH   5   6
BRANCH   1   9
ATOM      9  S   UNL     1       2.612   0.851  -0.347  0.00  0.00    -0.072 S 
BRANCH   9  11
ATOM     10  C   UNL     1       1.569   2.500   1.564  0.00  0.00    +0.029 C 
ATOM     11  C   UNL     1       1.277   1.961   0.163  0.00  0.00    +0.137 C 
BRANCH  11  12
ATOM     12  C   UNL     1      -0.027   1.205   0.176  0.00  0.00    +0.230 C 
ATOM     13  O   UNL     1      -0.029   0.002   0.325  0.00  0.00    -0.274 OA
ATOM     14  N   UNL     1      -1.191   1.867   0.018  0.00  0.00    -0.285 N 
ATOM     15  H   UNL     1      -1.196   2.836  -0.024  0.00  0.00    +0.155 HD
BRANCH  14  16
ATOM     16  C   UNL     1      -2.391   1.155  -0.086  0.00  0.00    +0.034 A 
ATOM     17  C   UNL     1      -3.566   1.696   0.425  0.00  0.00    +0.023 A 
ATOM     18  C   UNL     1      -4.755   0.998   0.325  0.00  0.00    +0.002 A 
ATOM     19  C   UNL     1      -4.786  -0.240  -0.282  0.00  0.00    +0.011 A 
ATOM     20  C   UNL     1      -3.611  -0.794  -0.798  0.00  0.00    +0.019 A 
ATOM     21  C   UNL     1      -2.410  -0.085  -0.703  0.00  0.00    +0.034 A 
BRANCH  20  22
ATOM     22  C   UNL     1      -3.639  -2.115  -1.446  0.00  0.00    +0.160 C 
ATOM     23  O   UNL     1      -2.619  -2.594  -1.894  0.00  0.00    -0.292 OA
ATOM     24  C   UNL     1      -4.937  -2.874  -1.554  0.00  0.00    +0.091 C 
ENDBRANCH  20  22
ENDBRANCH  14  16
ENDBRANCH  11  12
ENDBRANCH   9  11
ENDBRANCH   1   9
BRANCH   4  25
ATOM     25  C   UNL     1       7.378   3.119  -0.965  0.00  0.00    +0.113 C 
BRANCH  25  26
ATOM     26  C   UNL     1       7.565   3.454  -2.422  0.00  0.00    -0.032 A 
ATOM     27  C   UNL     1       7.878   2.475  -3.314  0.00  0.00    +0.004 A 
ATOM     28  C   UNL     1       8.048   2.765  -4.667  0.00  0.00    +0.001 A 
ATOM     29  C   UNL     1       7.917   4.037  -5.133  0.00  0.00    +0.008 A 
ATOM     30  C   UNL     1       7.600   5.075  -4.241  0.00  0.00    -0.018 A 
ATOM     31  C   UNL     1       7.421   4.780  -2.866  0.00  0.00    -0.014 A 
ATOM     32  C   UNL     1       7.104   5.818  -1.974  0.00  0.00    +0.009 A 
ATOM     33  C   UNL     1       6.974   7.090  -2.440  0.00  0.00    +0.001 A 
ATOM     34  C   UNL     1       7.150   7.381  -3.792  0.00  0.00    +0.001 A 
ATOM     35  C   UNL     1       7.457   6.401  -4.685  0.00  0.00    +0.008 A 
ENDBRANCH  25  26
ENDBRANCH   4  25
TORSDOF 8
