REMARK  Name = ZINC63228959
REMARK  8 active torsions:
REMARK  status: ('A' for Active; 'I' for Inactive)
REMARK    1  A    between atoms: C_10  and  C_12
REMARK    2  A    between atoms: C_12  and  O_13
REMARK    3  A    between atoms: O_13  and  C_14
REMARK    4  A    between atoms: C_14  and  C_16
REMARK    5  A    between atoms: C_16  and  C_18
REMARK    6  A    between atoms: C_16  and  N_28
REMARK    7  A    between atoms: C_18  and  C_19
REMARK    8  A    between atoms: C_29  and  C_31
REMARK                            x       y       z     vdW  Elec       q    Type
REMARK                         _______ _______ _______ _____ _____    ______ ____
ROOT
ATOM      1  C   UNL     1       8.520   2.660  -0.071  0.00  0.00    +0.186 C 
ENDROOT
BRANCH   1   2
ATOM      2  N   UNL     1       8.779   4.102  -0.066  0.00  0.00    -0.298 N 
ATOM      3  C   UNL     1       9.934   4.581  -0.569  0.00  0.00    +0.245 C 
ATOM      4  O   UNL     1      10.761   3.816  -1.027  0.00  0.00    -0.270 OA
ATOM      5  H   UNL     1       8.120   4.712   0.299  0.00  0.00    +0.150 HD
BRANCH   3   6
ATOM      6  C   UNL     1      10.196   6.035  -0.564  0.00  0.00    +0.037 A 
ATOM      7  C   UNL     1       9.251   6.915  -0.034  0.00  0.00    +0.016 A 
ATOM      8  C   UNL     1       9.500   8.271  -0.032  0.00  0.00    +0.039 A 
ATOM      9  C   UNL     1      10.686   8.761  -0.555  0.00  0.00    +0.123 A 
ATOM     10  C   UNL     1      11.629   7.891  -1.083  0.00  0.00    +0.039 A 
ATOM     11  C   UNL     1      11.392   6.533  -1.085  0.00  0.00    +0.016 A 
ATOM     12  F   UNL     1      10.925  10.090  -0.551  0.00  0.00    -0.205 F 
ENDBRANCH   3   6
ENDBRANCH   1   2
BRANCH   1  13
ATOM     13  C   UNL     1       7.032   2.417  -0.057  0.00  0.00    +0.328 C 
ATOM     14  O   UNL     1       6.268   3.353  -0.044  0.00  0.00    -0.249 OA
BRANCH  13  15
ATOM     15  O   UNL     1       6.557   1.162  -0.059  0.00  0.00    -0.454 OA
BRANCH  15  16
ATOM     16  C   UNL     1       5.137   1.006  -0.045  0.00  0.00    +0.328 C 
BRANCH  16  26
ATOM     17  C   UNL     1      -0.017   1.378   0.010  0.00  0.00    +0.000 A 
ATOM     18  C   UNL     1       1.174   2.082   0.002  0.00  0.00    +0.002 A 
ATOM     19  C   UNL     1       2.377   1.410  -0.013  0.00  0.00    +0.024 A 
ATOM     20  C   UNL     1       2.404   0.014  -0.022  0.00  0.00    +0.040 A 
ATOM     21  C   UNL     1       1.206  -0.682  -0.014  0.00  0.00    -0.024 A 
ATOM     22  C   UNL     1       0.002  -0.004   0.002  0.00  0.00    +0.005 A 
ATOM     23  C   UNL     1       1.510  -2.163  -0.025  0.00  0.00    +0.056 C 
ATOM     24  C   UNL     1       3.046  -2.243  -0.040  0.00  0.00    +0.118 C 
ATOM     25  N   UNL     1       3.503  -0.851  -0.037  0.00  0.00    -0.268 N 
ATOM     26  C   UNL     1       4.793  -0.461  -0.049  0.00  0.00    +0.258 C 
ATOM     27  O   UNL     1       5.677  -1.291  -0.062  0.00  0.00    -0.272 OA
ENDBRANCH  16  26
ENDBRANCH  15  16
ENDBRANCH  13  15
ENDBRANCH   1  13
BRANCH   1  28
ATOM     28  C   UNL     1       9.152   2.024   1.168  0.00  0.00    +0.067 C 
BRANCH  28  29
ATOM     29  C   UNL     1      10.651   2.160   1.093  0.00  0.00    -0.039 C 
ATOM     30  C   UNL     1      11.409   3.129   1.654  0.00  0.00    -0.001 A 
ATOM     31  C   UNL     1      11.078   4.303   2.471  0.00  0.00    +0.010 A 
ATOM     32  C   UNL     1      12.077   5.109   2.896  0.00  0.00    +0.001 A 
ATOM     33  C   UNL     1      13.417   4.853   2.578  0.00  0.00    +0.002 A 
ATOM     34  C   UNL     1      13.800   3.794   1.832  0.00  0.00    +0.026 A 
ATOM     35  C   UNL     1      12.833   2.880   1.332  0.00  0.00    +0.043 A 
ATOM     36  N   UNL     1      12.950   1.799   0.600  0.00  0.00    -0.380 N 
ATOM     37  C   UNL     1      11.613   1.236   0.380  0.00  0.00    +0.144 C 
ATOM     38  H   UNL     1      13.782   1.431   0.263  0.00  0.00    +0.160 HD
ENDBRANCH  28  29
ENDBRANCH   1  28
TORSDOF 8
