REMARK  Name = ZINC02281966
REMARK  7 active torsions:
REMARK  status: ('A' for Active; 'I' for Inactive)
REMARK    1  A    between atoms: C_1  and  C_2
REMARK    2  A    between atoms: C_5  and  S_8
REMARK    3  A    between atoms: S_8  and  N_11
REMARK    4  A    between atoms: N_11  and  C_12
REMARK    5  A    between atoms: C_17  and  C_18
REMARK    6  A    between atoms: C_18  and  C_20
REMARK    7  A    between atoms: C_18  and  O_27
REMARK                            x       y       z     vdW  Elec       q    Type
REMARK                         _______ _______ _______ _____ _____    ______ ____
ROOT
ATOM      1  C   UNL     1       0.066   3.860   0.202  0.00  0.00    +0.054 A 
ATOM      2  C   UNL     1      -1.062   3.062   0.346  0.00  0.00    +0.025 A 
ATOM      3  C   UNL     1      -0.925   1.698   0.509  0.00  0.00    +0.002 A 
ATOM      4  C   UNL     1       0.335   1.127   0.542  0.00  0.00    +0.000 A 
ATOM      5  C   UNL     1       1.460   1.918   0.399  0.00  0.00    +0.008 A 
ATOM      6  C   UNL     1       1.329   3.282   0.230  0.00  0.00    +0.008 A 
ENDROOT
BRANCH   1   7
ATOM      7  N   UNL     1      -0.069   5.239   0.031  0.00  0.00    -0.216 N 
ATOM      8  H   UNL     1       0.567   5.725  -0.517  0.00  0.00    +0.174 HD
BRANCH   7   9
ATOM      9  S   UNL     1      -1.315   6.046   0.765  0.00  0.00    +0.072 S 
ATOM     10  O   UNL     1      -1.098   7.430   0.528  0.00  0.00    -0.150 OA
ATOM     11  O   UNL     1      -2.512   5.385   0.377  0.00  0.00    -0.150 OA
BRANCH   9  16
ATOM     12  C   UNL     1      -0.730   5.204   6.711  0.00  0.00    +0.044 C 
ATOM     13  C   UNL     1      -0.876   5.415   5.226  0.00  0.00    -0.050 A 
ATOM     14  C   UNL     1      -0.264   6.494   4.617  0.00  0.00    +0.005 A 
ATOM     15  C   UNL     1      -0.398   6.687   3.255  0.00  0.00    +0.029 A 
ATOM     16  C   UNL     1      -1.144   5.800   2.502  0.00  0.00    +0.109 A 
ATOM     17  C   UNL     1      -1.761   4.724   3.111  0.00  0.00    +0.029 A 
ATOM     18  C   UNL     1      -1.623   4.528   4.473  0.00  0.00    +0.005 A 
ENDBRANCH   9  16
ENDBRANCH   7   9
ENDBRANCH   1   7
BRANCH   6  19
ATOM     19  C   UNL     1       2.556   4.144   0.074  0.00  0.00    +0.176 C 
BRANCH  19  20
ATOM     20  C   UNL     1       2.945   4.710   1.415  0.00  0.00    -0.015 A 
ATOM     21  C   UNL     1       3.731   3.969   2.277  0.00  0.00    +0.007 A 
ATOM     22  C   UNL     1       4.092   4.490   3.505  0.00  0.00    +0.015 A 
ATOM     23  C   UNL     1       3.659   5.750   3.875  0.00  0.00    +0.018 A 
ATOM     24  C   UNL     1       2.868   6.490   3.015  0.00  0.00    +0.015 A 
ATOM     25  C   UNL     1       2.512   5.970   1.785  0.00  0.00    +0.007 A 
ATOM     26 BR   UNL     1       4.146   6.461   5.559  0.00  0.00    -0.050 Br
ENDBRANCH  19  20
BRANCH  19  27
ATOM     27  O   UNL     1       3.631   3.354  -0.440  0.00  0.00    -0.382 OA
ATOM     28  H   UNL     1       3.875   2.608   0.125  0.00  0.00    +0.211 HD
ENDBRANCH  19  27
ENDBRANCH   6  19
TORSDOF 6
