REMARK  Name = ZINC06894637
REMARK  5 active torsions:
REMARK  status: ('A' for Active; 'I' for Inactive)
REMARK    1  A    between atoms: C_1  and  C_2
REMARK    2  A    between atoms: C_4  and  C_30
REMARK    3  A    between atoms: C_5  and  N_9
REMARK    4  A    between atoms: C_6  and  C_8
REMARK    5  A    between atoms: C_10  and  C_12
REMARK                            x       y       z     vdW  Elec       q    Type
REMARK                         _______ _______ _______ _____ _____    ______ ____
ROOT
ATOM      1  C   UNL     1      -2.352   1.888   0.518  0.00  0.00    +0.076 C 
ATOM      2  C   UNL     1      -3.364   0.831   1.036  0.00  0.00    -0.003 C 
ATOM      3  C   UNL     1      -4.483   0.917  -0.029  0.00  0.00    -0.066 C 
ATOM      4  C   UNL     1      -5.201  -0.439  -0.120  0.00  0.00    -0.017 C 
ATOM      5  C   UNL     1      -4.863  -0.964  -1.552  0.00  0.00    -0.020 C 
ATOM      6  C   UNL     1      -3.563  -0.201  -1.909  0.00  0.00    -0.077 C 
ATOM      7  C   UNL     1      -2.469   1.754  -1.008  0.00  0.00    +0.052 C 
ATOM      8  C   UNL     1      -2.319   3.096  -1.673  0.00  0.00    -0.027 A 
ATOM      9  C   UNL     1      -3.028   4.274  -1.594  0.00  0.00    +0.004 A 
ATOM     10  C   UNL     1      -2.641   5.366  -2.350  0.00  0.00    +0.000 A 
ATOM     11  C   UNL     1      -1.543   5.270  -3.186  0.00  0.00    +0.002 A 
ATOM     12  C   UNL     1      -0.831   4.092  -3.268  0.00  0.00    +0.023 A 
ATOM     13  C   UNL     1      -1.213   2.988  -2.510  0.00  0.00    +0.036 A 
ATOM     14  N   UNL     1      -0.663   1.708  -2.421  0.00  0.00    -0.286 N 
ATOM     15  C   UNL     1      -1.337   0.924  -1.558  0.00  0.00    +0.212 C 
ATOM     16  O   UNL     1      -1.085  -0.230  -1.281  0.00  0.00    -0.277 OA
ATOM     17  H   UNL     1       0.114   1.417  -2.922  0.00  0.00    +0.155 HD
ATOM     18  N   UNL     1      -3.773   1.120  -1.287  0.00  0.00    +0.394 N 
ATOM     19  H   UNL     1      -4.324   1.719  -1.913  0.00  0.00    -0.079 HD
ENDROOT
BRANCH   1  21
ATOM     20  N   UNL     1      -3.979   3.489   1.469  0.00  0.00    -0.285 N 
ATOM     21  C   UNL     1      -2.749   3.271   0.965  0.00  0.00    +0.220 C 
ATOM     22  O   UNL     1      -1.961   4.189   0.870  0.00  0.00    -0.275 OA
ATOM     23  H   UNL     1      -4.589   2.745   1.599  0.00  0.00    +0.155 HD
BRANCH  20  28
ATOM     24  C   UNL     1      -5.593   8.752   2.839  0.00  0.00    +0.044 C 
ATOM     25  C   UNL     1      -5.165   7.354   2.476  0.00  0.00    -0.050 A 
ATOM     26  C   UNL     1      -5.835   6.663   1.483  0.00  0.00    +0.008 A 
ATOM     27  C   UNL     1      -5.444   5.382   1.147  0.00  0.00    -0.029 A 
ATOM     28  C   UNL     1      -4.377   4.787   1.807  0.00  0.00    +0.039 A 
ATOM     29  C   UNL     1      -3.710   5.481   2.808  0.00  0.00    -0.029 A 
ATOM     30  C   UNL     1      -4.102   6.764   3.136  0.00  0.00    +0.008 A 
ATOM     31  C   UNL     1      -2.556   4.837   3.532  0.00  0.00    +0.045 C 
ATOM     32  C   UNL     1      -6.174   4.630   0.063  0.00  0.00    +0.045 C 
ENDBRANCH  20  28
ENDBRANCH   1  21
TORSDOF 2
