REMARK  Name = ZINC45235305
REMARK  12 active torsions:
REMARK  status: ('A' for Active; 'I' for Inactive)
REMARK    1  A    between atoms: C_1  and  C_2
REMARK    2  A    between atoms: C_5  and  N_9
REMARK    3  A    between atoms: C_6  and  C_8
REMARK    4  A    between atoms: N_9  and  C_10
REMARK    5  A    between atoms: N_9  and  C_17
REMARK    6  A    between atoms: C_10  and  C_11
REMARK    7  A    between atoms: C_17  and  N_19
REMARK    8  A    between atoms: N_19  and  C_20
REMARK    9  A    between atoms: C_20  and  C_21
REMARK   10  A    between atoms: C_21  and  C_22
REMARK   11  A    between atoms: C_27  and  C_33
REMARK   12  A    between atoms: C_28  and  C_32
REMARK                            x       y       z     vdW  Elec       q    Type
REMARK                         _______ _______ _______ _____ _____    ______ ____
ROOT
ATOM      1  C   UNL     1      -1.100  -4.859  -0.019  0.00  0.00    +0.137 C 
ATOM      2  S   UNL     1      -2.594  -4.022  -0.007  0.00  0.00    -0.018 S 
ENDROOT
BRANCH   1   3
ATOM      3  N   UNL     1      -1.082  -6.206  -0.026  0.00  0.00    -0.326 N 
ATOM      4  H   UNL     1      -0.236  -6.680  -0.033  0.00  0.00    +0.148 HD
BRANCH   3   5
ATOM      5  C   UNL     1      -2.341  -6.956  -0.024  0.00  0.00    +0.111 C 
BRANCH   5   6
ATOM      6  C   UNL     1      -2.042  -8.456  -0.034  0.00  0.00    +0.093 C 
BRANCH   6   7
ATOM      7  C   UNL     1      -3.337  -9.227  -0.032  0.00  0.00    +0.110 A 
ATOM      8  N   UNL     1      -3.682 -10.174  -0.945  0.00  0.00    -0.342 N 
ATOM      9  H   UNL     1      -3.147 -10.467  -1.699  0.00  0.00    +0.167 HD
ATOM     10  C   UNL     1      -4.934 -10.641  -0.600  0.00  0.00    +0.066 A 
ATOM     11  C   UNL     1      -5.794 -11.589  -1.137  0.00  0.00    +0.031 A 
ATOM     12  C   UNL     1      -7.011 -11.826  -0.534  0.00  0.00    -0.045 A 
ATOM     13  C   UNL     1      -7.381 -11.123   0.604  0.00  0.00    -0.045 A 
ATOM     14  C   UNL     1      -6.548 -10.186   1.146  0.00  0.00    +0.033 A 
ATOM     15  C   UNL     1      -5.309  -9.930   0.552  0.00  0.00    +0.089 A 
ATOM     16  N   UNL     1      -4.285  -9.087   0.848  0.00  0.00    -0.232 NA
ATOM     17  C   UNL     1      -8.716 -11.396   1.248  0.00  0.00    +0.044 C 
ATOM     18  C   UNL     1      -7.946 -12.855  -1.115  0.00  0.00    +0.044 C 
ENDBRANCH   6   7
ENDBRANCH   5   6
ENDBRANCH   3   5
ENDBRANCH   1   3
BRANCH   1  19
ATOM     19  N   UNL     1       0.058  -4.169  -0.021  0.00  0.00    -0.278 N 
BRANCH  19  24
ATOM     20  C   UNL     1      -0.018   1.503   0.010  0.00  0.00    +0.044 C 
ATOM     21  C   UNL     1       0.002  -0.004   0.002  0.00  0.00    -0.050 A 
ATOM     22  C   UNL     1       0.006  -0.688  -1.200  0.00  0.00    +0.005 A 
ATOM     23  C   UNL     1       0.024  -2.068  -1.211  0.00  0.00    +0.024 A 
ATOM     24  C   UNL     1       0.040  -2.771  -0.013  0.00  0.00    +0.039 A 
ATOM     25  C   UNL     1       0.036  -2.082   1.192  0.00  0.00    -0.029 A 
ATOM     26  C   UNL     1       0.023  -0.700   1.196  0.00  0.00    +0.008 A 
ATOM     27  C   UNL     1       0.052  -2.840   2.495  0.00  0.00    +0.045 C 
ENDBRANCH  19  24
BRANCH  19  28
ATOM     28  C   UNL     1       1.336  -4.885  -0.031  0.00  0.00    +0.149 C 
BRANCH  28  29
ATOM     29  C   UNL     1       1.782  -5.138   1.386  0.00  0.00    -0.012 A 
ATOM     30  C   UNL     1       2.569  -4.210   2.051  0.00  0.00    +0.008 A 
ATOM     31  C   UNL     1       2.955  -4.485   3.354  0.00  0.00    +0.020 A 
ATOM     32  C   UNL     1       2.546  -5.667   3.942  0.00  0.00    +0.111 A 
ATOM     33  N   UNL     1       1.798  -6.527   3.279  0.00  0.00    -0.263 NA
ATOM     34  C   UNL     1       1.407  -6.295   2.041  0.00  0.00    +0.116 A 
ENDBRANCH  28  29
ENDBRANCH  19  28
ENDBRANCH   1  19
TORSDOF 8
