REMARK  Name = ZINC00753404
REMARK  7 active torsions:
REMARK  status: ('A' for Active; 'I' for Inactive)
REMARK    1  A    between atoms: C_1  and  C_2
REMARK    2  A    between atoms: C_2  and  C_32
REMARK    3  A    between atoms: C_6  and  C_19
REMARK    4  A    between atoms: C_22  and  O_27
REMARK    5  A    between atoms: C_24  and  O_25
REMARK    6  A    between atoms: O_25  and  C_26
REMARK    7  A    between atoms: O_27  and  C_28
REMARK                            x       y       z     vdW  Elec       q    Type
REMARK                         _______ _______ _______ _____ _____    ______ ____
ROOT
ATOM      1  C   UNL     1      -3.523   0.133   3.206  0.00  0.00    +0.011 C 
ATOM      2  C   UNL     1      -3.724   1.138   2.072  0.00  0.00    -0.024 C 
ATOM      3  C   UNL     1      -2.546   1.072   1.097  0.00  0.00    +0.043 C 
ATOM      4  C   UNL     1      -2.466  -0.288   0.456  0.00  0.00    -0.029 C 
ATOM      5  C   UNL     1      -3.603  -1.006   0.234  0.00  0.00    +0.023 C 
ATOM      6  C   UNL     1      -3.548  -2.350  -0.449  0.00  0.00    +0.138 C 
ATOM      7  N   UNL     1      -2.240  -2.976  -0.254  0.00  0.00    -0.332 N 
ATOM      8  C   UNL     1      -1.101  -2.195  -0.170  0.00  0.00    +0.036 A 
ATOM      9  C   UNL     1      -1.208  -0.817   0.080  0.00  0.00    +0.007 A 
ATOM     10  C   UNL     1       0.002  -0.004   0.002  0.00  0.00    -0.009 A 
ATOM     11  C   UNL     1      -0.017   1.392   0.010  0.00  0.00    +0.009 A 
ATOM     12  C   UNL     1       1.152   2.099   0.002  0.00  0.00    +0.001 A 
ATOM     13  C   UNL     1       2.380   1.447  -0.026  0.00  0.00    +0.001 A 
ATOM     14  C   UNL     1       2.441   0.087  -0.068  0.00  0.00    +0.008 A 
ATOM     15  C   UNL     1       1.255  -0.665  -0.095  0.00  0.00    -0.017 A 
ATOM     16  C   UNL     1       1.298  -2.065  -0.231  0.00  0.00    +0.010 A 
ATOM     17  C   UNL     1       0.155  -2.791  -0.311  0.00  0.00    +0.024 A 
ATOM     18  C   UNL     1      -4.858  -0.519   0.629  0.00  0.00    +0.162 C 
ATOM     19  O   UNL     1      -5.851  -1.192   0.425  0.00  0.00    -0.292 OA
ATOM     20  C   UNL     1      -5.008   0.816   1.305  0.00  0.00    +0.086 C 
ATOM     21  C   UNL     1      -3.821   2.550   2.657  0.00  0.00    +0.011 C 
ATOM     22  H   UNL     1      -2.169  -3.948  -0.185  0.00  0.00    +0.147 HD
ENDROOT
BRANCH   6  23
ATOM     23  C   UNL     1      -3.803  -2.175  -1.924  0.00  0.00    +0.019 A 
ATOM     24  C   UNL     1      -2.744  -2.159  -2.811  0.00  0.00    +0.013 A 
ATOM     25  C   UNL     1      -2.974  -1.999  -4.163  0.00  0.00    +0.046 A 
ATOM     26  C   UNL     1      -4.272  -1.853  -4.635  0.00  0.00    +0.124 A 
ATOM     27  C   UNL     1      -5.336  -1.869  -3.747  0.00  0.00    +0.091 A 
ATOM     28  C   UNL     1      -5.102  -2.036  -2.390  0.00  0.00    +0.129 A 
BRANCH  28  29
ATOM     29  O   UNL     1      -6.144  -2.057  -1.518  0.00  0.00    -0.495 OA
ATOM     30  C   UNL     1      -7.454  -1.908  -2.069  0.00  0.00    +0.277 C 
ENDBRANCH  28  29
BRANCH  26  31
ATOM     31  O   UNL     1      -4.498  -1.695  -5.965  0.00  0.00    -0.495 OA
ATOM     32  C   UNL     1      -3.354  -1.689  -6.822  0.00  0.00    +0.277 C 
ENDBRANCH  26  31
ENDBRANCH   6  23
TORSDOF 3
