REMARK  Name = ZINC15316908
REMARK  8 active torsions:
REMARK  status: ('A' for Active; 'I' for Inactive)
REMARK    1  A    between atoms: C_1  and  C_2
REMARK    2  A    between atoms: C_2  and  C_3
REMARK    3  A    between atoms: C_3  and  C_5
REMARK    4  A    between atoms: C_3  and  C_6
REMARK    5  A    between atoms: C_9  and  N_12
REMARK    6  A    between atoms: C_13  and  C_15
REMARK    7  A    between atoms: C_15  and  N_16
REMARK    8  A    between atoms: C_24  and  C_26
REMARK                            x       y       z     vdW  Elec       q    Type
REMARK                         _______ _______ _______ _____ _____    ______ ____
ROOT
ATOM      1  C   UNL     1      -5.390   3.434   8.127  0.00  0.00    +0.214 C 
ENDROOT
BRANCH   1   2
ATOM      2  N   UNL     1      -4.776   2.970   9.373  0.00  0.00    -0.215 N 
ATOM      3  C   UNL     1      -5.083   1.806   9.982  0.00  0.00    +0.247 C 
ATOM      4  O   UNL     1      -5.887   0.976   9.616  0.00  0.00    -0.273 OA
ATOM      5  C   UNL     1      -4.210   1.753  11.215  0.00  0.00    +0.115 C 
ATOM      6  C   UNL     1      -3.271   0.553  11.157  0.00  0.00    +0.035 C 
ATOM      7  C   UNL     1      -4.089  -0.740  11.177  0.00  0.00    +0.003 C 
ATOM      8  C   UNL     1      -4.930  -0.791  12.454  0.00  0.00    +0.000 C 
ATOM      9  C   UNL     1      -5.884   0.405  12.486  0.00  0.00    +0.006 C 
ATOM     10  C   UNL     1      -5.073   1.704  12.471  0.00  0.00    +0.018 C 
ATOM     11  C   UNL     1      -6.027   2.900  12.482  0.00  0.00    +0.010 C 
ATOM     12  N   UNL     1      -3.447   3.007  11.165  0.00  0.00    -0.285 N 
ATOM     13  C   UNL     1      -3.846   3.652  10.053  0.00  0.00    +0.310 C 
ATOM     14  O   UNL     1      -3.410   4.732   9.704  0.00  0.00    -0.252 OA
ATOM     15  H   UNL     1      -2.785   3.310  11.807  0.00  0.00    +0.151 HD
ENDBRANCH   1   2
BRANCH   1  17
ATOM     16  N   UNL     1      -4.959   3.248   5.698  0.00  0.00    -0.284 N 
ATOM     17  C   UNL     1      -4.581   2.942   6.955  0.00  0.00    +0.235 C 
ATOM     18  O   UNL     1      -3.589   2.270   7.142  0.00  0.00    -0.274 OA
ATOM     19  H   UNL     1      -5.707   3.848   5.549  0.00  0.00    +0.155 HD
BRANCH  16  23
ATOM     20  C   UNL     1      -2.918   1.620   2.452  0.00  0.00    -0.044 A 
ATOM     21  C   UNL     1      -3.448   2.894   2.364  0.00  0.00    +0.006 A 
ATOM     22  C   UNL     1      -4.130   3.435   3.437  0.00  0.00    +0.023 A 
ATOM     23  C   UNL     1      -4.274   2.701   4.608  0.00  0.00    +0.033 A 
ATOM     24  C   UNL     1      -3.735   1.424   4.694  0.00  0.00    +0.023 A 
ATOM     25  C   UNL     1      -3.059   0.887   3.616  0.00  0.00    +0.006 A 
BRANCH  20  26
ATOM     26  C   UNL     1      -2.179   1.031   1.278  0.00  0.00    +0.016 C 
ATOM     27  C   UNL     1      -0.978   1.916   0.935  0.00  0.00    +0.012 C 
BRANCH  26  29
ATOM     28  C   UNL     1      -2.406   0.244  -1.083  0.00  0.00    +0.004 C 
ATOM     29  C   UNL     1      -3.117   0.955   0.071  0.00  0.00    +0.004 C 
ENDBRANCH  26  29
ENDBRANCH  20  26
ENDBRANCH  16  23
ENDBRANCH   1  17
TORSDOF 5
