REMARK  Name = ZINC15732636
REMARK  11 active torsions:
REMARK  status: ('A' for Active; 'I' for Inactive)
REMARK    1  A    between atoms: C_1  and  C_2
REMARK    2  A    between atoms: C_2  and  O_3
REMARK    3  A    between atoms: O_3  and  C_4
REMARK    4  A    between atoms: C_7  and  C_10
REMARK    5  A    between atoms: C_19  and  S_21
REMARK    6  A    between atoms: S_21  and  C_22
REMARK    7  A    between atoms: C_22  and  C_23
REMARK    8  A    between atoms: N_25  and  C_26
REMARK    9  A    between atoms: C_29  and  C_32
REMARK   10  A    between atoms: C_32  and  C_33
REMARK   11  A    between atoms: C_32  and  C_34
REMARK                            x       y       z     vdW  Elec       q    Type
REMARK                         _______ _______ _______ _____ _____    ______ ____
ROOT
ATOM      1  C   UNL     1      -3.337   2.606   0.017  0.00  0.00    +0.165 A 
ATOM      2  N   UNL     1      -2.456   1.613   0.003  0.00  0.00    -0.208 NA
ATOM      3  C   UNL     1      -1.147   1.880  -0.005  0.00  0.00    +0.162 A 
ATOM      4  C   UNL     1      -0.014   1.076  -0.012  0.00  0.00    +0.119 A 
ATOM      5  C   UNL     1       1.102   1.913  -0.008  0.00  0.00    +0.267 A 
ATOM      6  O   UNL     1       2.267   1.550  -0.016  0.00  0.00    -0.266 OA
ATOM      7  N   UNL     1       0.676   3.192   0.007  0.00  0.00    -0.256 N 
ATOM      8  H   UNL     1       1.244   3.978   0.013  0.00  0.00    +0.191 HD
ATOM      9  N   UNL     1      -0.722   3.192   0.013  0.00  0.00    -0.210 N 
ATOM     10  C   UNL     1      -1.653   4.191   0.027  0.00  0.00    +0.192 A 
ATOM     11  N   UNL     1      -2.940   3.881   0.029  0.00  0.00    -0.202 NA
ENDROOT
BRANCH   1  15
ATOM     12  C   UNL     1      -7.491   1.712   0.024  0.00  0.00    +0.121 A 
ATOM     13  C   UNL     1      -7.067   3.035   0.037  0.00  0.00    +0.046 A 
ATOM     14  C   UNL     1      -5.721   3.328   0.035  0.00  0.00    +0.015 A 
ATOM     15  C   UNL     1      -4.783   2.295   0.020  0.00  0.00    +0.019 A 
ATOM     16  C   UNL     1      -5.213   0.966   0.002  0.00  0.00    +0.015 A 
ATOM     17  C   UNL     1      -6.560   0.680   0.009  0.00  0.00    +0.046 A 
BRANCH  12  18
ATOM     18  O   UNL     1      -8.818   1.426   0.026  0.00  0.00    -0.492 OA
BRANCH  18  20
ATOM     19  C   UNL     1     -10.710  -0.079   0.017  0.00  0.00    +0.048 C 
ATOM     20  C   UNL     1      -9.185   0.044   0.013  0.00  0.00    +0.225 C 
ENDBRANCH  18  20
ENDBRANCH  12  18
ENDBRANCH   1  15
BRANCH  10  21
ATOM     21  S   UNL     1      -1.145   5.878   0.042  0.00  0.00    -0.077 S 
BRANCH  21  22
ATOM     22  C   UNL     1      -2.762   6.693   0.058  0.00  0.00    +0.173 C 
BRANCH  22  23
ATOM     23  C   UNL     1      -2.571   8.187   0.072  0.00  0.00    +0.227 C 
ATOM     24  O   UNL     1      -1.452   8.656   0.072  0.00  0.00    -0.275 OA
ATOM     25  N   UNL     1      -3.643   9.004   0.085  0.00  0.00    -0.285 N 
ATOM     26  H   UNL     1      -4.537   8.632   0.017  0.00  0.00    +0.155 HD
BRANCH  25  27
ATOM     27  C   UNL     1      -3.468  10.387   0.196  0.00  0.00    +0.033 A 
ATOM     28  C   UNL     1      -4.390  11.151   0.900  0.00  0.00    +0.023 A 
ATOM     29  C   UNL     1      -4.210  12.516   1.014  0.00  0.00    +0.006 A 
ATOM     30  C   UNL     1      -3.122  13.123   0.416  0.00  0.00    -0.045 A 
ATOM     31  C   UNL     1      -2.206  12.367  -0.291  0.00  0.00    +0.006 A 
ATOM     32  C   UNL     1      -2.376  11.001  -0.403  0.00  0.00    +0.023 A 
BRANCH  30  33
ATOM     33  C   UNL     1      -2.933  14.614   0.536  0.00  0.00    +0.013 C 
ATOM     34  C   UNL     1      -4.138  15.332  -0.074  0.00  0.00    +0.012 C 
ATOM     35  C   UNL     1      -2.806  14.995   2.013  0.00  0.00    +0.012 C 
ENDBRANCH  30  33
ENDBRANCH  25  27
ENDBRANCH  22  23
ENDBRANCH  21  22
ENDBRANCH  10  21
TORSDOF 8
