REMARK  Name = ZINC12660575
REMARK  6 active torsions:
REMARK  status: ('A' for Active; 'I' for Inactive)
REMARK    1  A    between atoms: C_1  and  N_2
REMARK    2  A    between atoms: C_5  and  C_12
REMARK    3  A    between atoms: C_5  and  C_20
REMARK    4  A    between atoms: N_8  and  C_11
REMARK    5  A    between atoms: C_12  and  C_13
REMARK    6  A    between atoms: C_20  and  N_61
REMARK                            x       y       z     vdW  Elec       q    Type
REMARK                         _______ _______ _______ _____ _____    ______ ____
ROOT
ATOM      1  C   UNL     1       0.259  -0.794  -3.781  0.00  0.00    +0.143 C 
ATOM      2  N   UNL     1       1.215   0.128  -3.164  0.00  0.00    -0.228 N 
ATOM      3  C   UNL     1       1.891  -0.268  -2.065  0.00  0.00    +0.236 C 
ATOM      4  O   UNL     1       1.720  -1.368  -1.583  0.00  0.00    -0.274 OA
ATOM      5  C   UNL     1       2.873   0.713  -1.454  0.00  0.00    +0.113 C 
ATOM      6  C   UNL     1       2.994   2.056  -2.149  0.00  0.00    +0.236 C 
ATOM      7  O   UNL     1       3.748   2.912  -1.738  0.00  0.00    -0.274 OA
ATOM      8  N   UNL     1       2.233   2.268  -3.240  0.00  0.00    -0.228 N 
ATOM      9  C   UNL     1       1.393   1.338  -3.707  0.00  0.00    +0.317 C 
ATOM     10  O   UNL     1       0.742   1.612  -4.696  0.00  0.00    -0.252 OA
ATOM     11  C   UNL     1       2.327   3.554  -3.935  0.00  0.00    +0.143 C 
ENDROOT
BRANCH   5  12
ATOM     12  C   UNL     1       2.456   0.964  -0.003  0.00  0.00    +0.058 C 
BRANCH  12  13
ATOM     13  C   UNL     1       1.095   1.610   0.024  0.00  0.00    -0.046 A 
ATOM     14  C   UNL     1      -0.042   0.825   0.075  0.00  0.00    +0.005 A 
ATOM     15  C   UNL     1      -1.290   1.417   0.094  0.00  0.00    +0.020 A 
ATOM     16  C   UNL     1      -1.402   2.796   0.072  0.00  0.00    +0.041 A 
ATOM     17  C   UNL     1      -0.265   3.581   0.020  0.00  0.00    +0.020 A 
ATOM     18  C   UNL     1       0.984   2.988  -0.004  0.00  0.00    +0.005 A 
ATOM     19 CL   UNL     1      -2.970   3.540   0.102  0.00  0.00    -0.084 Cl
ENDBRANCH  12  13
ENDBRANCH   5  12
BRANCH   5  20
ATOM     20  C   UNL     1       4.256   0.058  -1.442  0.00  0.00    -0.053 C 
BRANCH  20  34
ATOM     21  C   UNL     1       5.638  -1.373  -2.818  0.00  0.00    -0.074 C 
ATOM     22  C   UNL     1       5.993  -1.783  -4.240  0.00  0.00    -0.007 C 
ATOM     23  C   UNL     1       6.467  -0.574  -5.051  0.00  0.00    +0.011 C 
ATOM     24  C   UNL     1       5.351   0.477  -5.011  0.00  0.00    +0.020 C 
ATOM     25  C   UNL     1       5.132   0.883  -3.545  0.00  0.00    -0.069 C 
ATOM     26  C   UNL     1       4.066  -0.146  -5.509  0.00  0.00    +0.023 A 
ATOM     27  C   UNL     1       3.162   0.674  -6.108  0.00  0.00    +0.022 A 
ATOM     28  C   UNL     1       1.925   0.177  -6.533  0.00  0.00    +0.007 A 
ATOM     29  C   UNL     1       1.631  -1.137  -6.311  0.00  0.00    +0.070 A 
ATOM     30  C   UNL     1       2.584  -1.954  -5.688  0.00  0.00    +0.251 A 
ATOM     31  O   UNL     1       2.309  -3.114  -5.427  0.00  0.00    -0.268 OA
ATOM     32  N   UNL     1       3.810  -1.467  -5.372  0.00  0.00    -0.312 N 
ATOM     33  C   UNL     1       4.820  -2.439  -4.948  0.00  0.00    +0.126 C 
ATOM     34  N   UNL     1       4.617  -0.305  -2.827  0.00  0.00    +0.381 N 
ATOM     35  H   UNL     1       3.779  -0.649  -3.310  0.00  0.00    -0.082 HD
ENDBRANCH  20  34
ENDBRANCH   5  20
TORSDOF 4
