REMARK  Name = ZINC34780494
REMARK  7 active torsions:
REMARK  status: ('A' for Active; 'I' for Inactive)
REMARK    1  A    between atoms: C_1  and  C_2
REMARK    2  A    between atoms: C_5  and  C_8
REMARK    3  A    between atoms: N_11  and  C_37
REMARK    4  A    between atoms: C_18  and  C_20
REMARK    5  A    between atoms: C_23  and  C_26
REMARK    6  A    between atoms: C_27  and  C_30
REMARK    7  A    between atoms: C_33  and  C_36
REMARK                            x       y       z     vdW  Elec       q    Type
REMARK                         _______ _______ _______ _____ _____    ______ ____
ROOT
ATOM      1  C   UNL     1      -0.849  -4.589  -0.048  0.00  0.00    +0.015 C 
ATOM      2  C   UNL     1      -0.637  -5.246   1.104  0.00  0.00    -0.007 C 
ATOM      3  C   UNL     1      -0.781  -4.555   2.446  0.00  0.00    +0.121 C 
ATOM      4  N   UNL     1       0.332  -5.016   3.295  0.00  0.00    -0.297 NA
ATOM      5  C   UNL     1       0.236  -6.455   3.552  0.00  0.00    +0.119 C 
ATOM      6  C   UNL     1       0.159  -7.237   2.272  0.00  0.00    -0.005 C 
ATOM      7  C   UNL     1      -0.261  -6.677   1.118  0.00  0.00    +0.073 C 
ATOM      8  N   UNL     1      -0.335  -7.413  -0.025  0.00  0.00    -0.225 NA
ATOM      9  C   UNL     1      -0.021  -8.672  -0.100  0.00  0.00    +0.166 C 
ATOM     10  N   UNL     1       0.428  -9.423   0.963  0.00  0.00    -0.267 N 
ATOM     11  C   UNL     1       0.552  -8.697   2.257  0.00  0.00    +0.140 C 
ATOM     12  C   UNL     1       0.717 -10.751   0.710  0.00  0.00    +0.050 C 
ATOM     13  C   UNL     1       0.561 -11.261  -0.524  0.00  0.00    +0.072 C 
ATOM     14  S   UNL     1      -0.026  -9.845  -1.440  0.00  0.00    -0.060 S 
ATOM     15  C   UNL     1       0.382  -4.259   4.553  0.00  0.00    +0.105 C 
ENDROOT
BRANCH   1  20
ATOM     16  C   UNL     1      -2.923   0.774   0.040  0.00  0.00    +0.044 C 
ATOM     17  C   UNL     1      -2.379  -0.631   0.017  0.00  0.00    -0.050 A 
ATOM     18  C   UNL     1      -2.856  -1.569   0.916  0.00  0.00    +0.004 A 
ATOM     19  C   UNL     1      -2.364  -2.857   0.901  0.00  0.00    +0.008 A 
ATOM     20  C   UNL     1      -1.380  -3.214  -0.025  0.00  0.00    -0.025 A 
ATOM     21  C   UNL     1      -0.903  -2.262  -0.930  0.00  0.00    +0.008 A 
ATOM     22  C   UNL     1      -1.409  -0.979  -0.906  0.00  0.00    +0.004 A 
ENDBRANCH   1  20
BRANCH  11  23
ATOM     23  C   UNL     1      -0.308  -9.418   3.262  0.00  0.00    -0.022 A 
ATOM     24  C   UNL     1      -1.588  -9.813   2.919  0.00  0.00    +0.006 A 
ATOM     25  C   UNL     1      -2.377 -10.475   3.841  0.00  0.00    +0.004 A 
ATOM     26  C   UNL     1      -1.887 -10.742   5.105  0.00  0.00    -0.050 A 
ATOM     27  C   UNL     1      -0.607 -10.348   5.448  0.00  0.00    +0.004 A 
ATOM     28  C   UNL     1       0.184  -9.690   4.525  0.00  0.00    +0.006 A 
ATOM     29  C   UNL     1      -2.748 -11.463   6.111  0.00  0.00    +0.044 C 
ENDBRANCH  11  23
BRANCH  12  30
ATOM     30  C   UNL     1       1.203 -11.617   1.806  0.00  0.00    -0.003 A 
ATOM     31  C   UNL     1       0.601 -12.854   2.040  0.00  0.00    +0.010 A 
ATOM     32  C   UNL     1       1.059 -13.658   3.064  0.00  0.00    +0.004 A 
ATOM     33  C   UNL     1       2.113 -13.239   3.857  0.00  0.00    -0.050 A 
ATOM     34  C   UNL     1       2.714 -12.014   3.630  0.00  0.00    +0.004 A 
ATOM     35  C   UNL     1       2.269 -11.204   2.606  0.00  0.00    +0.010 A 
ATOM     36  C   UNL     1       2.607 -14.122   4.974  0.00  0.00    +0.044 C 
ENDBRANCH  12  30
TORSDOF 3
