REMARK  Name = ZINC58891461
REMARK  13 active torsions:
REMARK  status: ('A' for Active; 'I' for Inactive)
REMARK    1  A    between atoms: C_1  and  C_2
REMARK    2  A    between atoms: C_2  and  O_3
REMARK    3  A    between atoms: O_3  and  C_4
REMARK    4  A    between atoms: C_6  and  C_23
REMARK    5  A    between atoms: C_9  and  O_10
REMARK    6  A    between atoms: O_10  and  C_11
REMARK    7  A    between atoms: C_11  and  C_12
REMARK    8  A    between atoms: N_24  and  N_25
REMARK    9  A    between atoms: C_26  and  C_28
REMARK   10  A    between atoms: C_28  and  C_29
REMARK   11  A    between atoms: C_29  and  C_30
REMARK   12  A    between atoms: C_30  and  C_32
REMARK   13  A    between atoms: C_30  and  O_38
REMARK                            x       y       z     vdW  Elec       q    Type
REMARK                         _______ _______ _______ _____ _____    ______ ____
ROOT
ATOM      1  C   UNL     1      -1.434  -1.864   0.625  0.00  0.00    +0.164 A 
ATOM      2  C   UNL     1      -0.433  -2.698   0.163  0.00  0.00    +0.059 A 
ATOM      3  C   UNL     1      -0.445  -4.054   0.502  0.00  0.00    -0.000 A 
ATOM      4  C   UNL     1      -1.469  -4.560   1.307  0.00  0.00    +0.033 A 
ATOM      5  C   UNL     1      -2.465  -3.721   1.764  0.00  0.00    +0.087 A 
ATOM      6  C   UNL     1      -2.449  -2.373   1.431  0.00  0.00    +0.181 A 
ATOM      7 CL   UNL     1      -3.736  -4.351   2.765  0.00  0.00    -0.080 Cl
ENDROOT
BRANCH   3   8
ATOM      8  C   UNL     1       0.620  -4.948   0.012  0.00  0.00    +0.138 C 
ATOM      9  N   UNL     1       0.466  -6.235   0.074  0.00  0.00    -0.188 NA
BRANCH   9  10
ATOM     10  N   UNL     1      -0.821  -6.788   0.079  0.00  0.00    -0.207 N 
ATOM     11  C   UNL     1      -0.986  -8.111   0.277  0.00  0.00    +0.232 C 
ATOM     12  O   UNL     1      -0.019  -8.823   0.450  0.00  0.00    -0.274 OA
ATOM     13  H   UNL     1      -1.594  -6.218  -0.060  0.00  0.00    +0.177 HD
BRANCH  11  14
ATOM     14  C   UNL     1      -2.371  -8.705   0.281  0.00  0.00    +0.100 C 
BRANCH  14  15
ATOM     15  C   UNL     1      -2.278 -10.213   0.525  0.00  0.00    +0.045 C 
BRANCH  15  16
ATOM     16  C   UNL     1      -3.683 -10.816   0.530  0.00  0.00    +0.145 C 
BRANCH  16  17
ATOM     17  C   UNL     1      -3.602 -12.277   0.890  0.00  0.00    -0.019 A 
ATOM     18  C   UNL     1      -3.238 -13.206  -0.067  0.00  0.00    +0.006 A 
ATOM     19  C   UNL     1      -3.163 -14.546   0.264  0.00  0.00    +0.000 A 
ATOM     20  C   UNL     1      -3.451 -14.957   1.552  0.00  0.00    +0.000 A 
ATOM     21  C   UNL     1      -3.814 -14.028   2.509  0.00  0.00    +0.000 A 
ATOM     22  C   UNL     1      -3.885 -12.688   2.179  0.00  0.00    +0.006 A 
ENDBRANCH  16  17
BRANCH  16  23
ATOM     23  O   UNL     1      -4.266 -10.678  -0.768  0.00  0.00    -0.387 OA
ATOM     24  H   UNL     1      -3.769 -11.118  -1.471  0.00  0.00    +0.210 HD
ENDBRANCH  16  23
ENDBRANCH  15  16
ENDBRANCH  14  15
ENDBRANCH  11  14
ENDBRANCH   9  10
ENDBRANCH   3   8
BRANCH   1  25
ATOM     25  O   UNL     1      -1.425  -0.544   0.296  0.00  0.00    -0.489 OA
BRANCH  25  27
ATOM     26  C   UNL     1      -0.511   1.409  -0.794  0.00  0.00    +0.048 C 
ATOM     27  C   UNL     1      -0.354  -0.090  -0.534  0.00  0.00    +0.226 C 
ENDBRANCH  25  27
ENDBRANCH   1  25
BRANCH   6  28
ATOM     28  O   UNL     1      -3.429  -1.550   1.889  0.00  0.00    -0.482 OA
BRANCH  28  29
ATOM     29  C   UNL     1      -4.593  -1.411   1.071  0.00  0.00    +0.264 C 
BRANCH  29  30
ATOM     30  C   UNL     1      -5.563  -0.467   1.734  0.00  0.00    -0.010 A 
ATOM     31  C   UNL     1      -6.517  -0.971   2.616  0.00  0.00    +0.007 A 
ATOM     32  C   UNL     1      -7.407  -0.145   3.232  0.00  0.00    +0.009 A 
ATOM     33  C   UNL     1      -7.366   1.236   2.977  0.00  0.00    -0.018 A 
ATOM     34  C   UNL     1      -8.269   2.119   3.594  0.00  0.00    +0.008 A 
ATOM     35  C   UNL     1      -8.199   3.451   3.323  0.00  0.00    +0.001 A 
ATOM     36  C   UNL     1      -7.245   3.955   2.441  0.00  0.00    +0.001 A 
ATOM     37  C   UNL     1      -6.354   3.130   1.825  0.00  0.00    +0.008 A 
ATOM     38  C   UNL     1      -6.396   1.748   2.080  0.00  0.00    -0.018 A 
ATOM     39  C   UNL     1      -5.490   0.866   1.468  0.00  0.00    +0.015 A 
ENDBRANCH  29  30
ENDBRANCH  28  29
ENDBRANCH   6  28
TORSDOF 12
