REMARK  Name = ZINC66895373
REMARK  8 active torsions:
REMARK  status: ('A' for Active; 'I' for Inactive)
REMARK    1  A    between atoms: C_1  and  C_2
REMARK    2  A    between atoms: C_2  and  C_4
REMARK    3  A    between atoms: C_2  and  N_13
REMARK    4  A    between atoms: N_9  and  C_10
REMARK    5  A    between atoms: C_10  and  C_11
REMARK    6  A    between atoms: C_16  and  N_19
REMARK    7  A    between atoms: C_20  and  O_22
REMARK    8  A    between atoms: O_22  and  C_23
REMARK                            x       y       z     vdW  Elec       q    Type
REMARK                         _______ _______ _______ _____ _____    ______ ____
ROOT
ATOM      1  N   UNL     1       0.479   0.056  -1.917  0.00  0.00    -0.292 NA
ATOM      2  C   UNL     1       0.453  -1.394  -1.688  0.00  0.00    +0.087 C 
ATOM      3  C   UNL     1       0.790  -2.123  -2.991  0.00  0.00    +0.038 C 
ATOM      4  C   UNL     1       2.179  -1.688  -3.469  0.00  0.00    +0.079 C 
ATOM      5  C   UNL     1       2.194  -0.168  -3.652  0.00  0.00    +0.038 C 
ATOM      6  C   UNL     1       1.815   0.504  -2.330  0.00  0.00    +0.087 C 
ENDROOT
BRANCH   4   7
ATOM      7  N   UNL     1       2.483  -2.339  -4.745  0.00  0.00    -0.278 N 
ATOM      8  C   UNL     1       3.765  -2.532  -5.114  0.00  0.00    +0.406 C 
ATOM      9  O   UNL     1       4.668  -2.167  -4.388  0.00  0.00    -0.226 OA
ATOM     10  H   UNL     1       1.762  -2.630  -5.325  0.00  0.00    +0.152 HD
BRANCH   8  11
ATOM     11  O   UNL     1       4.045  -3.130  -6.288  0.00  0.00    -0.412 OA
BRANCH  11  12
ATOM     12  C   UNL     1       5.346  -3.402  -6.572  0.00  0.00    +0.133 A 
ATOM     13  C   UNL     1       6.044  -2.603  -7.466  0.00  0.00    +0.046 A 
ATOM     14  C   UNL     1       7.366  -2.881  -7.753  0.00  0.00    +0.004 A 
ATOM     15  C   UNL     1       7.995  -3.954  -7.149  0.00  0.00    +0.000 A 
ATOM     16  C   UNL     1       7.302  -4.752  -6.257  0.00  0.00    +0.004 A 
ATOM     17  C   UNL     1       5.981  -4.474  -5.963  0.00  0.00    +0.046 A 
ENDBRANCH  11  12
ENDBRANCH   8  11
ENDBRANCH   4   7
BRANCH   1  19
ATOM     18  C   UNL     1       1.145   0.805   0.318  0.00  0.00    +0.034 C 
ATOM     19  C   UNL     1       0.026   0.785  -0.725  0.00  0.00    +0.140 C 
BRANCH  19  20
ATOM     20  C   UNL     1      -0.332   2.198  -1.106  0.00  0.00    +0.237 C 
ATOM     21  O   UNL     1       0.022   2.645  -2.176  0.00  0.00    -0.274 OA
ATOM     22  N   UNL     1      -1.044   2.966  -0.258  0.00  0.00    -0.239 N 
ATOM     23  C   UNL     1      -1.364   4.230  -0.599  0.00  0.00    +0.306 C 
ATOM     24  O   UNL     1      -1.009   4.678  -1.671  0.00  0.00    -0.252 OA
ATOM     25  N   UNL     1      -2.076   4.997   0.250  0.00  0.00    -0.296 N 
ATOM     26  H   UNL     1      -1.327   2.608   0.599  0.00  0.00    +0.159 HD
ATOM     27  H   UNL     1      -2.359   4.640   1.106  0.00  0.00    +0.151 HD
BRANCH  25  28
ATOM     28  C   UNL     1      -2.423   6.371  -0.121  0.00  0.00    +0.132 C 
BRANCH  28  29
ATOM     29  C   UNL     1      -3.216   7.007   0.992  0.00  0.00    -0.016 C 
ATOM     30  C   UNL     1      -2.814   8.137   1.519  0.00  0.00    +0.005 C 
ENDBRANCH  28  29
ENDBRANCH  25  28
ENDBRANCH  19  20
ENDBRANCH   1  19
TORSDOF 7
