REMARK  Name = ZINC02737440
REMARK  9 active torsions:
REMARK  status: ('A' for Active; 'I' for Inactive)
REMARK    1  A    between atoms: C_1  and  C_2
REMARK    2  A    between atoms: C_2  and  O_3
REMARK    3  A    between atoms: O_3  and  C_4
REMARK    4  A    between atoms: C_4  and  C_6
REMARK    5  A    between atoms: C_10  and  N_11
REMARK    6  A    between atoms: C_12  and  C_14
REMARK    7  A    between atoms: C_14  and  C_15
REMARK    8  A    between atoms: C_14  and  C_21
REMARK    9  A    between atoms: C_28  and  C_32
REMARK                            x       y       z     vdW  Elec       q    Type
REMARK                         _______ _______ _______ _____ _____    ______ ____
ROOT
ATOM      1  N   UNL     1       1.994  -5.678  -1.892  0.00  0.00    -0.279 N 
ATOM      2  C   UNL     1       2.292  -6.060  -3.150  0.00  0.00    +0.229 C 
ATOM      3  O   UNL     1       2.317  -5.240  -4.043  0.00  0.00    -0.274 OA
ATOM      4  H   UNL     1       1.974  -6.334  -1.178  0.00  0.00    +0.155 HD
ENDROOT
BRANCH   1   9
ATOM      5  C   UNL     1       1.391  -3.766  -0.401  0.00  0.00    +0.091 A 
ATOM      6  C   UNL     1       1.142  -2.334  -0.386  0.00  0.00    -0.021 A 
ATOM      7  C   UNL     1       1.257  -1.718  -1.581  0.00  0.00    -0.004 A 
ATOM      8  S   UNL     1       1.688  -3.006  -2.716  0.00  0.00    -0.077 S 
ATOM      9  C   UNL     1       1.716  -4.348  -1.619  0.00  0.00    +0.086 A 
ATOM     10  C   UNL     1       1.059  -0.261  -1.870  0.00  0.00    +0.046 C 
ATOM     11  C   UNL     1       0.337   0.375  -0.673  0.00  0.00    -0.009 C 
ATOM     12  C   UNL     1       1.037  -0.065   0.616  0.00  0.00    +0.008 C 
ATOM     13  C   UNL     1       0.776  -1.551   0.869  0.00  0.00    +0.037 C 
ATOM     14  C   UNL     1       0.392   1.899  -0.792  0.00  0.00    +0.008 C 
BRANCH   5  15
ATOM     15  C   UNL     1       1.301  -4.566   0.823  0.00  0.00    +0.342 C 
ATOM     16  O   UNL     1       0.243  -5.073   1.142  0.00  0.00    -0.245 OA
BRANCH  15  17
ATOM     17  O   UNL     1       2.393  -4.740   1.596  0.00  0.00    -0.461 OA
BRANCH  17  19
ATOM     18  C   UNL     1       3.565  -5.628   3.537  0.00  0.00    +0.048 C 
ATOM     19  C   UNL     1       2.230  -5.544   2.794  0.00  0.00    +0.229 C 
ENDBRANCH  17  19
ENDBRANCH  15  17
ENDBRANCH   5  15
ENDBRANCH   1   9
BRANCH   2  20
ATOM     20  C   UNL     1       2.594  -7.506  -3.446  0.00  0.00    +0.135 C 
BRANCH  20  21
ATOM     21  C   UNL     1       2.893  -7.666  -4.914  0.00  0.00    -0.031 A 
ATOM     22  C   UNL     1       3.865  -6.884  -5.511  0.00  0.00    +0.005 A 
ATOM     23  C   UNL     1       4.142  -7.034  -6.857  0.00  0.00    +0.000 A 
ATOM     24  C   UNL     1       3.442  -7.959  -7.608  0.00  0.00    +0.000 A 
ATOM     25  C   UNL     1       2.467  -8.737  -7.013  0.00  0.00    +0.000 A 
ATOM     26  C   UNL     1       2.192  -8.591  -5.666  0.00  0.00    +0.005 A 
ENDBRANCH  20  21
BRANCH  20  27
ATOM     27  C   UNL     1       3.789  -7.945  -2.639  0.00  0.00    -0.031 A 
ATOM     28  C   UNL     1       4.956  -7.204  -2.673  0.00  0.00    +0.005 A 
ATOM     29  C   UNL     1       6.051  -7.605  -1.930  0.00  0.00    +0.000 A 
ATOM     30  C   UNL     1       5.981  -8.750  -1.160  0.00  0.00    +0.000 A 
ATOM     31  C   UNL     1       4.816  -9.494  -1.130  0.00  0.00    +0.000 A 
ATOM     32  C   UNL     1       3.720  -9.091  -1.870  0.00  0.00    +0.005 A 
ENDBRANCH  20  27
ENDBRANCH   2  20
TORSDOF 7
