REMARK  Name = ZINC39653900
REMARK  9 active torsions:
REMARK  status: ('A' for Active; 'I' for Inactive)
REMARK    1  A    between atoms: C_1  and  C_2
REMARK    2  A    between atoms: C_2  and  O_3
REMARK    3  A    between atoms: O_3  and  C_4
REMARK    4  A    between atoms: C_7  and  C_10
REMARK    5  A    between atoms: C_10  and  C_11
REMARK    6  A    between atoms: C_11  and  N_12
REMARK    7  A    between atoms: C_13  and  C_15
REMARK    8  A    between atoms: C_26  and  C_28
REMARK    9  A    between atoms: N_32  and  C_33
REMARK                            x       y       z     vdW  Elec       q    Type
REMARK                         _______ _______ _______ _____ _____    ______ ____
ROOT
ATOM      1  C   UNL     1      -0.419  -9.547  -4.368  0.00  0.00    +0.100 C 
ATOM      2  C   UNL     1       0.627 -10.222  -5.284  0.00  0.00    +0.121 C 
ATOM      3  N   UNL     1      -0.005 -11.496  -5.698  0.00  0.00    -0.295 N 
ATOM      4  C   UNL     1      -1.428 -11.146  -5.924  0.00  0.00    +0.115 C 
ATOM      5  C   UNL     1      -1.766 -10.156  -4.792  0.00  0.00    -0.004 C 
ATOM      6  C   UNL     1      -2.405 -10.893  -3.619  0.00  0.00    -0.010 C 
ATOM      7  C   UNL     1      -3.769 -11.441  -4.049  0.00  0.00    -0.082 C 
ATOM      8  N   UNL     1      -4.629 -10.333  -4.484  0.00  0.00    +0.379 N 
ATOM      9  C   UNL     1      -4.053  -9.687  -5.669  0.00  0.00    -0.082 C 
ATOM     10  C   UNL     1      -2.701  -9.066  -5.308  0.00  0.00    -0.010 C 
ATOM     11  C   UNL     1       0.581 -12.702  -5.838  0.00  0.00    +0.263 C 
ATOM     12  O   UNL     1      -0.023 -13.614  -6.372  0.00  0.00    -0.268 OA
ATOM     13  H   UNL     1      -5.546 -10.689  -4.708  0.00  0.00    -0.086 HD
ATOM     14  H   UNL     1      -4.706  -9.658  -3.739  0.00  0.00    -0.086 HD
ENDROOT
BRANCH  11  15
ATOM     15  C   UNL     1       1.947 -12.915  -5.347  0.00  0.00    +0.104 A 
ATOM     16  C   UNL     1       2.617 -12.127  -4.435  0.00  0.00    +0.032 A 
ATOM     17  C   UNL     1       3.883 -12.693  -4.256  0.00  0.00    +0.020 A 
ATOM     18  C   UNL     1       3.963 -13.791  -5.045  0.00  0.00    +0.086 A 
ATOM     19  N   UNL     1       2.791 -13.940  -5.709  0.00  0.00    -0.346 N 
ATOM     20  C   UNL     1       2.476 -15.012  -6.657  0.00  0.00    +0.149 C 
ENDBRANCH  11  15
BRANCH   1  22
ATOM     21  N   UNL     1      -0.875  -7.234  -3.620  0.00  0.00    -0.315 N 
ATOM     22  C   UNL     1      -0.425  -8.056  -4.588  0.00  0.00    +0.218 C 
ATOM     23  O   UNL     1      -0.025  -7.596  -5.636  0.00  0.00    -0.275 OA
ATOM     24  H   UNL     1      -1.195  -7.601  -2.781  0.00  0.00    +0.149 HD
BRANCH  21  25
ATOM     25  C   UNL     1      -0.880  -5.784  -3.833  0.00  0.00    +0.109 C 
BRANCH  25  26
ATOM     26  C   UNL     1      -1.435  -5.088  -2.589  0.00  0.00    +0.054 C 
BRANCH  26  30
ATOM     27  C   UNL     1      -1.451  -0.860  -3.212  0.00  0.00    +0.121 A 
ATOM     28  C   UNL     1      -2.557  -1.618  -3.566  0.00  0.00    +0.046 A 
ATOM     29  C   UNL     1      -2.550  -2.985  -3.363  0.00  0.00    +0.007 A 
ATOM     30  C   UNL     1      -1.440  -3.597  -2.809  0.00  0.00    -0.046 A 
ATOM     31  C   UNL     1      -0.336  -2.843  -2.456  0.00  0.00    +0.007 A 
ATOM     32  C   UNL     1      -0.337  -1.477  -2.662  0.00  0.00    +0.046 A 
BRANCH  27  33
ATOM     33  O   UNL     1      -1.456   0.485  -3.410  0.00  0.00    -0.492 OA
BRANCH  33  35
ATOM     34  C   UNL     1      -2.457   2.564  -4.128  0.00  0.00    +0.048 C 
ATOM     35  C   UNL     1      -2.637   1.052  -3.982  0.00  0.00    +0.225 C 
ENDBRANCH  33  35
ENDBRANCH  27  33
ENDBRANCH  26  30
ENDBRANCH  25  26
ENDBRANCH  21  25
ENDBRANCH   1  22
TORSDOF 7
