REMARK  Name = CHEMBL247797
REMARK  9 active torsions:
REMARK  status: ('A' for Active; 'I' for Inactive)
REMARK    1  A    between atoms: C_1  and  N_2
REMARK    2  A    between atoms: C_9  and  C_12
REMARK    3  A    between atoms: C_12  and  N_13
REMARK    4  A    between atoms: N_13  and  C_14
REMARK    5  A    between atoms: C_15  and  C_20
REMARK    6  A    between atoms: N_18  and  C_19
REMARK    7  A    between atoms: N_22  and  C_23
REMARK    8  A    between atoms: C_26  and  S_29
REMARK    9  A    between atoms: S_29  and  C_30
REMARK                            x       y       z     vdW  Elec       q    Type
REMARK                         _______ _______ _______ _____ _____    ______ ____
ROOT
ATOM      1  C   UNL     1      -7.384  -5.808  -2.176  0.00  0.00    +0.129 A 
ATOM      2  C   UNL     1      -7.863  -6.071  -3.458  0.00  0.00    +0.096 A 
ATOM      3  C   UNL     1      -8.993  -6.909  -3.312  0.00  0.00    +0.149 A 
ATOM      4  N   UNL     1      -9.175  -7.130  -2.041  0.00  0.00    -0.177 NA
ATOM      5  N   UNL     1      -8.186  -6.462  -1.311  0.00  0.00    -0.253 N 
ATOM      6  C   UNL     1      -8.045  -6.470   0.147  0.00  0.00    +0.174 C 
ENDROOT
BRANCH   2   7
ATOM      7  C   UNL     1      -7.302  -5.572  -4.719  0.00  0.00    +0.253 C 
ATOM      8  O   UNL     1      -6.321  -4.853  -4.706  0.00  0.00    -0.270 OA
ATOM      9  N   UNL     1      -7.874  -5.910  -5.891  0.00  0.00    -0.281 N 
ATOM     10  H   UNL     1      -8.686  -6.441  -5.900  0.00  0.00    +0.155 HD
BRANCH   9  11
ATOM     11  C   UNL     1      -7.296  -5.496  -7.099  0.00  0.00    +0.034 A 
ATOM     12  C   UNL     1      -8.101  -5.238  -8.201  0.00  0.00    +0.024 A 
ATOM     13  C   UNL     1      -7.532  -4.830  -9.391  0.00  0.00    +0.017 A 
ATOM     14  C   UNL     1      -6.154  -4.677  -9.485  0.00  0.00    +0.016 A 
ATOM     15  C   UNL     1      -5.349  -4.934  -8.382  0.00  0.00    +0.017 A 
ATOM     16  C   UNL     1      -5.920  -5.337  -7.191  0.00  0.00    +0.024 A 
BRANCH  14  17
ATOM     17  S   UNL     1      -5.427  -4.156 -11.003  0.00  0.00    -0.016 S 
BRANCH  17  18
ATOM     18  C   UNL     1      -3.650  -4.103 -10.643  0.00  0.00    +0.448 C 
ATOM     19  F   UNL     1      -3.213  -5.375 -10.258  0.00  0.00    -0.160 F 
ATOM     20  F   UNL     1      -2.954  -3.697 -11.787  0.00  0.00    -0.160 F 
ATOM     21  F   UNL     1      -3.412  -3.194  -9.606  0.00  0.00    -0.160 F 
ENDBRANCH  17  18
ENDBRANCH  14  17
ENDBRANCH   9  11
ENDBRANCH   2   7
BRANCH   1  22
ATOM     22  N   UNL     1      -6.291  -5.030  -1.853  0.00  0.00    -0.325 N 
ATOM     23  H   UNL     1      -5.817  -4.546  -2.548  0.00  0.00    +0.148 HD
BRANCH  22  24
ATOM     24  C   UNL     1      -5.846  -4.933  -0.461  0.00  0.00    +0.139 C 
BRANCH  24  33
ATOM     25  C   UNL     1       2.038  -1.277  -0.652  0.00  0.00    +0.129 C 
ATOM     26  N   UNL     1       0.677  -0.815  -0.372  0.00  0.00    -0.302 N 
ATOM     27  C   UNL     1      -0.344  -1.696  -0.355  0.00  0.00    +0.305 C 
ATOM     28  O   UNL     1      -0.134  -2.873  -0.572  0.00  0.00    -0.252 OA
ATOM     29  N   UNL     1      -1.596  -1.270  -0.098  0.00  0.00    -0.254 N 
ATOM     30  C   UNL     1      -2.666  -2.160  -0.184  0.00  0.00    +0.126 A 
ATOM     31  C   UNL     1      -3.966  -1.693  -0.025  0.00  0.00    +0.044 A 
ATOM     32  C   UNL     1      -5.018  -2.587  -0.113  0.00  0.00    +0.010 A 
ATOM     33  C   UNL     1      -4.732  -3.924  -0.357  0.00  0.00    -0.012 A 
ATOM     34  C   UNL     1      -3.418  -4.318  -0.505  0.00  0.00    +0.118 A 
ATOM     35  N   UNL     1      -2.435  -3.442  -0.421  0.00  0.00    -0.240 NA
ATOM     36  H   UNL     1       0.509   0.125  -0.199  0.00  0.00    +0.150 HD
ATOM     37  H   UNL     1      -1.754  -0.345   0.147  0.00  0.00    +0.158 HD
ENDBRANCH  24  33
ENDBRANCH  22  24
ENDBRANCH   1  22
TORSDOF 7
