REMARK  Name = CHEMBL571038
REMARK  8 active torsions:
REMARK  status: ('A' for Active; 'I' for Inactive)
REMARK    1  A    between atoms: C_1  and  C_2
REMARK    2  A    between atoms: C_7  and  C_8
REMARK    3  A    between atoms: CA_10  and  C_14
REMARK    4  A    between atoms: N_16  and  CA_17
REMARK    5  A    between atoms: CA_17  and  C_19
REMARK    6  A    between atoms: CA_17  and  C_21
REMARK    7  A    between atoms: C_19  and  O_20
REMARK    8  A    between atoms: N_27  and  C_28
REMARK                            x       y       z     vdW  Elec       q    Type
REMARK                         _______ _______ _______ _____ _____    ______ ____
ROOT
ATOM      1  C   UNL     1       0.617  -0.027   2.450  0.00  0.00    +0.019 A 
ATOM      2  C   UNL     1       0.176  -0.433   3.726  0.00  0.00    +0.042 A 
ATOM      3  CA  UNL     1       0.624   0.497   4.620  0.00  0.00    +0.102 A 
ATOM      4  N   UNL     1       1.325   1.458   3.926  0.00  0.00    -0.356 N 
ATOM      5  H   UNL     1       1.752   2.236   4.318  0.00  0.00    +0.165 HD
ATOM      6  C   UNL     1       1.327   1.141   2.617  0.00  0.00    +0.093 A 
ENDROOT
BRANCH   1  13
ATOM      7  C   UNL     1       0.222   1.501  -0.009  0.00  0.00    +0.047 C 
ATOM      8  C   UNL     1       0.178  -0.005  -0.012  0.00  0.00    -0.006 A 
ATOM      9  C   UNL     1      -0.045  -0.704  -1.184  0.00  0.00    +0.120 A 
ATOM     10  N   UNL     1      -0.079  -2.027  -1.153  0.00  0.00    -0.222 NA
ATOM     11  C   UNL     1       0.099  -2.688  -0.018  0.00  0.00    +0.220 A 
ATOM     12  N   UNL     1       0.316  -2.059   1.126  0.00  0.00    -0.214 NA
ATOM     13  C   UNL     1       0.368  -0.729   1.169  0.00  0.00    +0.080 A 
ATOM     14  N   UNL     1       0.057  -4.073  -0.030  0.00  0.00    -0.282 N 
ATOM     15  H   UNL     1       0.098  -4.566   0.804  0.00  0.00    +0.155 HD
BRANCH  14  16
ATOM     16  C   UNL     1      -0.045  -4.759  -1.244  0.00  0.00    +0.052 A 
ATOM     17  C   UNL     1       0.534  -4.233  -2.392  0.00  0.00    +0.025 A 
ATOM     18  C   UNL     1       0.432  -4.914  -3.589  0.00  0.00    +0.002 A 
ATOM     19  C   UNL     1      -0.246  -6.118  -3.647  0.00  0.00    +0.002 A 
ATOM     20  C   UNL     1      -0.824  -6.645  -2.507  0.00  0.00    +0.022 A 
ATOM     21  C   UNL     1      -0.721  -5.972  -1.304  0.00  0.00    +0.062 A 
ATOM     22 CL   UNL     1      -1.440  -6.638   0.129  0.00  0.00    -0.082 Cl
ENDBRANCH  14  16
ENDBRANCH   1  13
BRANCH   3  23
ATOM     23  C   UNL     1       0.397   0.476   6.070  0.00  0.00    +0.261 C 
ATOM     24  O   UNL     1      -0.241  -0.429   6.573  0.00  0.00    -0.269 OA
ATOM     25  N   UNL     1       0.896   1.460   6.844  0.00  0.00    -0.301 N 
ATOM     26  H   UNL     1       1.405   2.182   6.443  0.00  0.00    +0.150 HD
BRANCH  25  27
ATOM     27  CA  UNL     1       0.670   1.439   8.291  0.00  0.00    +0.129 C 
BRANCH  27  28
ATOM     28  C   UNL     1       1.763   2.213   8.982  0.00  0.00    -0.025 A 
ATOM     29  C   UNL     1       2.227   3.394   8.433  0.00  0.00    +0.005 A 
ATOM     30  C   UNL     1       3.230   4.103   9.066  0.00  0.00    +0.000 A 
ATOM     31  C   UNL     1       3.769   3.632  10.249  0.00  0.00    +0.000 A 
ATOM     32  C   UNL     1       3.304   2.452  10.798  0.00  0.00    +0.000 A 
ATOM     33  C   UNL     1       2.299   1.745  10.167  0.00  0.00    +0.005 A 
ENDBRANCH  27  28
BRANCH  27  34
ATOM     34  C   UNL     1      -0.684   2.079   8.605  0.00  0.00    +0.182 C 
BRANCH  34  35
ATOM     35  O   UNL     1      -0.651   3.462   8.247  0.00  0.00    -0.393 OA
ATOM     36  H   UNL     1      -1.478   3.933   8.419  0.00  0.00    +0.209 HD
ENDBRANCH  34  35
ENDBRANCH  27  34
ENDBRANCH  25  27
ENDBRANCH   3  23
TORSDOF 7
