REMARK  Name = CHEMBL221117
REMARK  6 active torsions:
REMARK  status: ('A' for Active; 'I' for Inactive)
REMARK    1  A    between atoms: C_1  and  C_2
REMARK    2  A    between atoms: C_2  and  C_4
REMARK    3  A    between atoms: C_2  and  N_10
REMARK    4  A    between atoms: C_11  and  C_13
REMARK    5  A    between atoms: C_15  and  C_19
REMARK    6  A    between atoms: C_20  and  C_25
REMARK                            x       y       z     vdW  Elec       q    Type
REMARK                         _______ _______ _______ _____ _____    ______ ____
ROOT
ATOM      1  C   UNL     1      -3.427  -1.151  -1.134  0.00  0.00    +0.102 A 
ATOM      2  C   UNL     1      -4.223  -1.338  -2.229  0.00  0.00    +0.042 A 
ATOM      3  C   UNL     1      -5.455  -1.837  -1.764  0.00  0.00    +0.021 A 
ATOM      4  C   UNL     1      -5.369  -1.937  -0.405  0.00  0.00    +0.093 A 
ATOM      5  N   UNL     1      -4.143  -1.528  -0.020  0.00  0.00    -0.356 N 
ATOM      6  H   UNL     1      -3.818  -1.502   0.893  0.00  0.00    +0.165 HD
ENDROOT
BRANCH   3   7
ATOM      7  C   UNL     1      -6.631  -2.189  -2.598  0.00  0.00    +0.102 A 
ATOM      8  C   UNL     1      -7.542  -3.247  -2.353  0.00  0.00    +0.027 A 
ATOM      9  C   UNL     1      -8.472  -3.226  -3.349  0.00  0.00    +0.114 A 
ATOM     10  N   UNL     1      -8.164  -2.209  -4.180  0.00  0.00    -0.284 N 
ATOM     11  N   UNL     1      -7.017  -1.572  -3.693  0.00  0.00    -0.173 NA
ATOM     12  H   UNL     1      -8.656  -1.961  -4.978  0.00  0.00    +0.188 HD
BRANCH   8  13
ATOM     13  C   UNL     1      -7.493  -4.202  -1.218  0.00  0.00    -0.013 A 
ATOM     14  C   UNL     1      -6.306  -4.865  -0.914  0.00  0.00    +0.009 A 
ATOM     15  C   UNL     1      -6.265  -5.753   0.142  0.00  0.00    +0.002 A 
ATOM     16  C   UNL     1      -7.399  -5.984   0.899  0.00  0.00    +0.020 A 
ATOM     17  C   UNL     1      -8.581  -5.328   0.602  0.00  0.00    +0.042 A 
ATOM     18  C   UNL     1      -8.632  -4.433  -0.450  0.00  0.00    +0.028 A 
ATOM     19 CL   UNL     1     -10.001  -5.625   1.556  0.00  0.00    -0.084 Cl
ENDBRANCH   8  13
ENDBRANCH   3   7
BRANCH   1  21
ATOM     20  N   UNL     1      -1.372  -0.511   0.012  0.00  0.00    -0.304 N 
ATOM     21  C   UNL     1      -2.051  -0.643  -1.145  0.00  0.00    +0.261 C 
ATOM     22  O   UNL     1      -1.522  -0.340  -2.198  0.00  0.00    -0.269 OA
ATOM     23  H   UNL     1      -1.794  -0.752   0.852  0.00  0.00    +0.150 HD
BRANCH  20  25
ATOM     24  C   UNL     1      -0.019   1.526   0.010  0.00  0.00    +0.033 C 
ATOM     25  C   UNL     1       0.002  -0.004   0.002  0.00  0.00    +0.100 C 
BRANCH  25  26
ATOM     26  C   UNL     1       0.731  -0.503   1.223  0.00  0.00    -0.027 A 
ATOM     27  C   UNL     1       0.081  -0.558   2.442  0.00  0.00    +0.005 A 
ATOM     28  C   UNL     1       0.749  -1.016   3.562  0.00  0.00    +0.000 A 
ATOM     29  C   UNL     1       2.068  -1.420   3.463  0.00  0.00    +0.000 A 
ATOM     30  C   UNL     1       2.718  -1.365   2.244  0.00  0.00    +0.000 A 
ATOM     31  C   UNL     1       2.048  -0.911   1.123  0.00  0.00    +0.005 A 
ENDBRANCH  25  26
ENDBRANCH  20  25
ENDBRANCH   1  21
TORSDOF 5
