REMARK  Name = CHEMBL221117
REMARK  6 active torsions:
REMARK  status: ('A' for Active; 'I' for Inactive)
REMARK    1  A    between atoms: C_1  and  C_2
REMARK    2  A    between atoms: C_2  and  C_4
REMARK    3  A    between atoms: C_2  and  N_10
REMARK    4  A    between atoms: C_11  and  C_13
REMARK    5  A    between atoms: C_15  and  C_19
REMARK    6  A    between atoms: C_20  and  C_25
REMARK                            x       y       z     vdW  Elec       q    Type
REMARK                         _______ _______ _______ _____ _____    ______ ____
ROOT
ATOM      1  C   UNL     1       0.024  -1.415   3.571  0.00  0.00    +0.102 A 
ATOM      2  C   UNL     1      -0.305  -1.477   4.895  0.00  0.00    +0.042 A 
ATOM      3  C   UNL     1       0.821  -1.982   5.578  0.00  0.00    +0.018 A 
ATOM      4  C   UNL     1       1.801  -2.211   4.636  0.00  0.00    +0.093 A 
ATOM      5  N   UNL     1       1.314  -1.873   3.425  0.00  0.00    -0.356 N 
ATOM      6  H   UNL     1       1.796  -1.940   2.586  0.00  0.00    +0.165 HD
ENDROOT
BRANCH   3   7
ATOM      7  C   UNL     1       0.930  -2.221   7.033  0.00  0.00    +0.075 A 
ATOM      8  C   UNL     1       0.538  -1.354   8.044  0.00  0.00    +0.027 A 
ATOM      9  C   UNL     1       0.823  -1.985   9.269  0.00  0.00    +0.143 A 
ATOM     10  N   UNL     1       1.351  -3.153   9.021  0.00  0.00    -0.181 NA
ATOM     11  N   UNL     1       1.428  -3.337   7.636  0.00  0.00    -0.276 N 
ATOM     12  H   UNL     1       1.777  -4.120   7.183  0.00  0.00    +0.189 HD
BRANCH   8  13
ATOM     13  C   UNL     1      -0.068  -0.013   7.866  0.00  0.00    -0.013 A 
ATOM     14  C   UNL     1       0.584   0.953   7.100  0.00  0.00    +0.009 A 
ATOM     15  C   UNL     1       0.015   2.200   6.937  0.00  0.00    +0.002 A 
ATOM     16  C   UNL     1      -1.199   2.493   7.531  0.00  0.00    +0.020 A 
ATOM     17  C   UNL     1      -1.851   1.538   8.293  0.00  0.00    +0.042 A 
ATOM     18  C   UNL     1      -1.294   0.285   8.458  0.00  0.00    +0.028 A 
ATOM     19 CL   UNL     1      -3.374   1.914   9.036  0.00  0.00    -0.084 Cl
ENDBRANCH   8  13
ENDBRANCH   3   7
BRANCH   1  21
ATOM     20  N   UNL     1      -0.405  -0.942   1.217  0.00  0.00    -0.304 N 
ATOM     21  C   UNL     1      -0.851  -0.948   2.489  0.00  0.00    +0.261 C 
ATOM     22  O   UNL     1      -1.978  -0.565   2.740  0.00  0.00    -0.269 OA
ATOM     23  H   UNL     1       0.494  -1.247   1.016  0.00  0.00    +0.150 HD
BRANCH  20  25
ATOM     24  C   UNL     1      -1.178   1.047   0.023  0.00  0.00    +0.033 C 
ATOM     25  C   UNL     1      -1.277  -0.475   0.137  0.00  0.00    +0.100 C 
BRANCH  25  26
ATOM     26  C   UNL     1      -0.848  -1.105  -1.164  0.00  0.00    -0.027 A 
ATOM     27  C   UNL     1       0.496  -1.254  -1.449  0.00  0.00    +0.005 A 
ATOM     28  C   UNL     1       0.890  -1.831  -2.642  0.00  0.00    +0.000 A 
ATOM     29  C   UNL     1      -0.061  -2.261  -3.549  0.00  0.00    +0.000 A 
ATOM     30  C   UNL     1      -1.405  -2.113  -3.263  0.00  0.00    +0.000 A 
ATOM     31  C   UNL     1      -1.799  -1.539  -2.068  0.00  0.00    +0.005 A 
ENDBRANCH  25  26
ENDBRANCH  20  25
ENDBRANCH   1  21
TORSDOF 5
