REMARK  Name = CHEMBL373797
REMARK  6 active torsions:
REMARK  status: ('A' for Active; 'I' for Inactive)
REMARK    1  A    between atoms: C_1  and  N_2
REMARK    2  A    between atoms: N_2  and  C_3
REMARK    3  A    between atoms: C_3  and  C_4
REMARK    4  A    between atoms: C_10  and  C_12
REMARK    5  A    between atoms: C_14  and  C_18
REMARK    6  A    between atoms: C_19  and  C_24
REMARK                            x       y       z     vdW  Elec       q    Type
REMARK                         _______ _______ _______ _____ _____    ______ ____
ROOT
ATOM      1  C   UNL     1      -0.438  -0.286  -2.450  0.00  0.00    +0.103 A 
ATOM      2  C   UNL     1      -0.505  -0.742  -3.736  0.00  0.00    +0.042 A 
ATOM      3  C   UNL     1      -0.472   0.389  -4.579  0.00  0.00    +0.018 A 
ATOM      4  C   UNL     1      -0.387   1.500  -3.767  0.00  0.00    +0.093 A 
ATOM      5  N   UNL     1      -0.372   1.089  -2.483  0.00  0.00    -0.356 N 
ATOM      6  H   UNL     1      -0.321   1.669  -1.707  0.00  0.00    +0.165 HD
ENDROOT
BRANCH   3   7
ATOM      7  C   UNL     1      -0.522   0.383  -6.056  0.00  0.00    +0.075 A 
ATOM      8  C   UNL     1       0.220  -0.428  -6.904  0.00  0.00    +0.027 A 
ATOM      9  C   UNL     1      -0.143  -0.098  -8.222  0.00  0.00    +0.143 A 
ATOM     10  N   UNL     1      -1.044   0.847  -8.180  0.00  0.00    -0.181 NA
ATOM     11  N   UNL     1      -1.308   1.169  -6.844  0.00  0.00    -0.276 N 
ATOM     12  H   UNL     1      -1.939   1.836  -6.533  0.00  0.00    +0.189 HD
BRANCH   8  13
ATOM     13  C   UNL     1       1.212  -1.452  -6.495  0.00  0.00    -0.013 A 
ATOM     14  C   UNL     1       2.229  -1.122  -5.600  0.00  0.00    +0.009 A 
ATOM     15  C   UNL     1       3.149  -2.079  -5.223  0.00  0.00    +0.002 A 
ATOM     16  C   UNL     1       3.065  -3.362  -5.731  0.00  0.00    +0.020 A 
ATOM     17  C   UNL     1       2.059  -3.696  -6.621  0.00  0.00    +0.042 A 
ATOM     18  C   UNL     1       1.128  -2.748  -7.001  0.00  0.00    +0.028 A 
ATOM     19 CL   UNL     1       1.961  -5.309  -7.255  0.00  0.00    -0.084 Cl
ENDBRANCH   8  13
ENDBRANCH   3   7
BRANCH   1  22
ATOM     20  C   UNL     1      -0.706   0.908   0.087  0.00  0.00    +0.132 C 
ATOM     21  N   UNL     1      -0.510  -0.539  -0.025  0.00  0.00    -0.295 N 
ATOM     22  C   UNL     1      -0.442  -1.117  -1.241  0.00  0.00    +0.263 C 
ATOM     23  O   UNL     1      -0.384  -2.329  -1.336  0.00  0.00    -0.268 OA
BRANCH  21  24
ATOM     24  C   UNL     1      -0.389  -1.359   1.183  0.00  0.00    +0.142 C 
BRANCH  24  25
ATOM     25  C   UNL     1      -1.754  -1.831   1.610  0.00  0.00    -0.030 A 
ATOM     26  C   UNL     1      -2.511  -1.065   2.477  0.00  0.00    +0.005 A 
ATOM     27  C   UNL     1      -3.764  -1.499   2.869  0.00  0.00    +0.000 A 
ATOM     28  C   UNL     1      -4.261  -2.697   2.392  0.00  0.00    +0.000 A 
ATOM     29  C   UNL     1      -3.505  -3.462   1.523  0.00  0.00    +0.000 A 
ATOM     30  C   UNL     1      -2.254  -3.027   1.129  0.00  0.00    +0.005 A 
ENDBRANCH  24  25
ENDBRANCH  21  24
ENDBRANCH   1  22
TORSDOF 5
