REMARK  Name = CHEMBL223471
REMARK  7 active torsions:
REMARK  status: ('A' for Active; 'I' for Inactive)
REMARK    1  A    between atoms: C_1  and  O_2
REMARK    2  A    between atoms: O_2  and  C_3
REMARK    3  A    between atoms: C_6  and  C_9
REMARK    4  A    between atoms: C_9  and  N_10
REMARK    5  A    between atoms: C_11  and  C_13
REMARK    6  A    between atoms: C_15  and  C_19
REMARK    7  A    between atoms: C_20  and  C_25
REMARK                            x       y       z     vdW  Elec       q    Type
REMARK                         _______ _______ _______ _____ _____    ______ ____
ROOT
ATOM      1  C   UNL     1       6.146  -3.511  -4.687  0.00  0.00    +0.102 A 
ATOM      2  C   UNL     1       7.068  -4.085  -5.517  0.00  0.00    +0.042 A 
ATOM      3  C   UNL     1       8.297  -4.086  -4.831  0.00  0.00    +0.021 A 
ATOM      4  C   UNL     1       8.085  -3.513  -3.609  0.00  0.00    +0.093 A 
ATOM      5  N   UNL     1       6.786  -3.159  -3.520  0.00  0.00    -0.356 N 
ATOM      6  H   UNL     1       6.370  -2.728  -2.757  0.00  0.00    +0.165 HD
ENDROOT
BRANCH   3   7
ATOM      7  C   UNL     1       9.588  -4.612  -5.341  0.00  0.00    +0.102 A 
ATOM      8  C   UNL     1      10.873  -4.078  -5.072  0.00  0.00    +0.027 A 
ATOM      9  C   UNL     1      11.783  -4.852  -5.727  0.00  0.00    +0.114 A 
ATOM     10  N   UNL     1      11.110  -5.824  -6.375  0.00  0.00    -0.284 N 
ATOM     11  N   UNL     1       9.743  -5.661  -6.119  0.00  0.00    -0.173 NA
ATOM     12  H   UNL     1      11.505  -6.519  -6.923  0.00  0.00    +0.188 HD
BRANCH   8  13
ATOM     13  C   UNL     1      11.171  -2.892  -4.232  0.00  0.00    -0.013 A 
ATOM     14  C   UNL     1      10.480  -1.699  -4.435  0.00  0.00    +0.009 A 
ATOM     15  C   UNL     1      10.761  -0.599  -3.651  0.00  0.00    +0.002 A 
ATOM     16  C   UNL     1      11.727  -0.678  -2.664  0.00  0.00    +0.020 A 
ATOM     17  C   UNL     1      12.417  -1.860  -2.457  0.00  0.00    +0.042 A 
ATOM     18  C   UNL     1      12.139  -2.969  -3.233  0.00  0.00    +0.028 A 
ATOM     19 CL   UNL     1      13.629  -1.951  -1.217  0.00  0.00    -0.084 Cl
ENDBRANCH   8  13
ENDBRANCH   3   7
BRANCH   1  21
ATOM     20  N   UNL     1       3.923  -2.713  -4.080  0.00  0.00    -0.306 N 
ATOM     21  C   UNL     1       4.726  -3.300  -4.989  0.00  0.00    +0.261 C 
ATOM     22  O   UNL     1       4.272  -3.655  -6.061  0.00  0.00    -0.269 OA
ATOM     23  H   UNL     1       4.284  -2.430  -3.225  0.00  0.00    +0.149 HD
BRANCH  20  24
ATOM     24  C   UNL     1       2.505  -2.503  -4.381  0.00  0.00    +0.140 C 
BRANCH  24  28
ATOM     25  C   UNL     1       0.606  -0.607  -1.056  0.00  0.00    +0.120 A 
ATOM     26  C   UNL     1       1.173   0.161  -2.062  0.00  0.00    +0.046 A 
ATOM     27  C   UNL     1       1.786  -0.455  -3.136  0.00  0.00    +0.009 A 
ATOM     28  C   UNL     1       1.835  -1.835  -3.209  0.00  0.00    -0.030 A 
ATOM     29  C   UNL     1       1.270  -2.602  -2.207  0.00  0.00    +0.009 A 
ATOM     30  C   UNL     1       0.661  -1.992  -1.128  0.00  0.00    +0.046 A 
BRANCH  25  32
ATOM     31  C   UNL     1      -0.017   1.425   0.010  0.00  0.00    +0.277 C 
ATOM     32  O   UNL     1       0.002  -0.004   0.002  0.00  0.00    -0.495 OA
ENDBRANCH  25  32
ENDBRANCH  24  28
ENDBRANCH  20  24
ENDBRANCH   1  21
TORSDOF 6
