REMARK  Name = CHEMBL597754
REMARK  7 active torsions:
REMARK  status: ('A' for Active; 'I' for Inactive)
REMARK    1  A    between atoms: C_1  and  N_2
REMARK    2  A    between atoms: C_3  and  C_5
REMARK    3  A    between atoms: N_8  and  C_10
REMARK    4  A    between atoms: N_17  and  C_18
REMARK    5  A    between atoms: C_24  and  C_26
REMARK    6  A    between atoms: N_29  and  S_32
REMARK    7  A    between atoms: S_32  and  C_35
REMARK                            x       y       z     vdW  Elec       q    Type
REMARK                         _______ _______ _______ _____ _____    ______ ____
ROOT
ATOM      1  C   UNL     1      -2.350  -4.647  -2.691  0.00  0.00    +0.151 A 
ATOM      2  C   UNL     1      -1.720  -4.927  -1.478  0.00  0.00    +0.012 A 
ATOM      3  C   UNL     1      -1.486  -6.285  -1.485  0.00  0.00    +0.091 A 
ATOM      4  N   UNL     1      -1.949  -6.759  -2.659  0.00  0.00    -0.264 N 
ATOM      5  N   UNL     1      -2.459  -5.793  -3.347  0.00  0.00    -0.166 NA
ATOM      6  C   UNL     1      -1.888  -8.159  -3.087  0.00  0.00    +0.173 C 
ATOM      7  C   UNL     1      -0.852  -6.936  -0.326  0.00  0.00    +0.097 A 
ATOM      8  C   UNL     1      -0.768  -6.193   0.861  0.00  0.00    -0.001 A 
ATOM      9  C   UNL     1      -0.137  -6.775   1.944  0.00  0.00    +0.120 A 
ATOM     10  N   UNL     1       0.329  -8.010   1.832  0.00  0.00    -0.223 NA
ATOM     11  C   UNL     1       0.198  -8.699   0.707  0.00  0.00    +0.216 A 
ATOM     12  N   UNL     1      -0.388  -8.175  -0.362  0.00  0.00    -0.213 NA
ATOM     13  N   UNL     1       0.683  -9.993   0.647  0.00  0.00    -0.311 N 
ATOM     14  C   UNL     1      -1.383  -4.829   0.974  0.00  0.00    +0.043 C 
ATOM     15  C   UNL     1      -1.312  -4.043  -0.335  0.00  0.00    +0.044 C 
ATOM     16  H   UNL     1       0.593 -10.508  -0.171  0.00  0.00    +0.149 HD
ENDROOT
BRANCH  13  17
ATOM     17  C   UNL     1       1.333 -10.588   1.817  0.00  0.00    +0.076 C 
ATOM     18  C   UNL     1       0.269 -11.184   2.743  0.00  0.00    +0.041 C 
ATOM     19  C   UNL     1       0.949 -11.774   3.982  0.00  0.00    +0.109 C 
ATOM     20  N   UNL     1       1.976 -12.730   3.548  0.00  0.00    -0.301 N 
ATOM     21  C   UNL     1       2.995 -12.286   2.587  0.00  0.00    +0.109 C 
ATOM     22  C   UNL     1       2.292 -11.690   1.363  0.00  0.00    +0.041 C 
ATOM     23  C   UNL     1       1.984 -13.992   4.022  0.00  0.00    +0.219 C 
ATOM     24  O   UNL     1       2.787 -14.795   3.597  0.00  0.00    -0.275 OA
BRANCH  23  25
ATOM     25  C   UNL     1       0.995 -14.405   5.081  0.00  0.00    +0.078 C 
ATOM     26  C   UNL     1       1.509 -13.973   6.456  0.00  0.00    +0.030 C 
ATOM     27  C   UNL     1       0.485 -14.364   7.526  0.00  0.00    +0.110 C 
ATOM     28  N   UNL     1       0.205 -15.801   7.411  0.00  0.00    -0.181 NA
ATOM     29  C   UNL     1      -0.209 -16.338   6.108  0.00  0.00    +0.110 C 
ATOM     30  C   UNL     1       0.823 -15.925   5.053  0.00  0.00    +0.030 C 
BRANCH  28  31
ATOM     31  S   UNL     1       0.356 -16.798   8.725  0.00  0.00    +0.029 S 
ATOM     32  O   UNL     1       0.626 -18.081   8.178  0.00  0.00    -0.158 OA
ATOM     33  O   UNL     1       1.305 -16.153   9.563  0.00  0.00    -0.158 OA
ATOM     34  C   UNL     1      -1.280 -16.785   9.509  0.00  0.00    +0.215 C 
ENDBRANCH  28  31
ENDBRANCH  23  25
ENDBRANCH  13  17
BRANCH   1  37
ATOM     35  C   UNL     1      -3.876  -1.889  -4.813  0.00  0.00    +0.128 C 
ATOM     36  N   UNL     1      -3.416  -3.201  -4.354  0.00  0.00    -0.313 N 
ATOM     37  C   UNL     1      -2.814  -3.323  -3.154  0.00  0.00    +0.264 C 
ATOM     38  O   UNL     1      -2.653  -2.343  -2.453  0.00  0.00    -0.268 OA
ATOM     39  H   UNL     1      -3.544  -3.983  -4.913  0.00  0.00    +0.149 HD
ENDBRANCH   1  37
TORSDOF 4
