REMARK  Name = CHEMBL235345
REMARK  4 active torsions:
REMARK  status: ('A' for Active; 'I' for Inactive)
REMARK    1  A    between atoms: C_4  and  C_7
REMARK    2  A    between atoms: C_10  and  N_12
REMARK    3  A    between atoms: N_12  and  C_13
REMARK    4  A    between atoms: C_18  and  C_19
REMARK                            x       y       z     vdW  Elec       q    Type
REMARK                         _______ _______ _______ _____ _____    ______ ____
ROOT
ATOM      1  C   UNL     1       5.633  -1.846   3.418  0.00  0.00    +0.171 C 
ATOM      2  N   UNL     1       4.842  -2.665   4.092  0.00  0.00    -0.153 NA
ATOM      3  C   UNL     1       5.308  -3.649   4.829  0.00  0.00    +0.276 C 
ATOM      4  O   UNL     1       4.568  -4.398   5.446  0.00  0.00    -0.267 OA
ATOM      5  C   UNL     1       6.783  -3.799   4.867  0.00  0.00    +0.079 C 
ATOM      6  C   UNL     1       7.547  -4.705   5.527  0.00  0.00    +0.028 C 
ATOM      7  S   UNL     1       7.270  -2.454   3.794  0.00  0.00    -0.050 S 
ENDROOT
BRANCH   6   8
ATOM      8  C   UNL     1       9.008  -4.556   5.548  0.00  0.00    -0.023 A 
ATOM      9  C   UNL     1       9.593  -3.320   5.205  0.00  0.00    +0.010 A 
ATOM     10  C   UNL     1      10.939  -3.160   5.217  0.00  0.00    +0.029 A 
ATOM     11  C   UNL     1      11.777  -4.234   5.574  0.00  0.00    +0.071 A 
ATOM     12  C   UNL     1      11.201  -5.483   5.921  0.00  0.00    +0.001 A 
ATOM     13  C   UNL     1       9.808  -5.633   5.911  0.00  0.00    +0.018 A 
ATOM     14  C   UNL     1      12.047  -6.551   6.278  0.00  0.00    +0.011 A 
ATOM     15  C   UNL     1      13.396  -6.333   6.273  0.00  0.00    +0.020 A 
ATOM     16  C   UNL     1      13.896  -5.082   5.921  0.00  0.00    +0.111 A 
ATOM     17  N   UNL     1      13.105  -4.090   5.590  0.00  0.00    -0.255 NA
ENDBRANCH   6   8
BRANCH   1  18
ATOM     18  N   UNL     1       5.282  -0.790   2.620  0.00  0.00    -0.225 NA
BRANCH  18  21
ATOM     19  C   UNL     1       3.541   0.742   1.533  0.00  0.00    +0.043 C 
ATOM     20  C   UNL     1       3.258  -0.683   1.054  0.00  0.00    +0.035 C 
ATOM     21  C   UNL     1       3.869  -0.449   2.437  0.00  0.00    +0.104 C 
BRANCH  19  25
ATOM     22  C   UNL     1       0.189   3.166   2.600  0.00  0.00    +0.000 A 
ATOM     23  C   UNL     1       1.451   3.726   2.521  0.00  0.00    +0.000 A 
ATOM     24  C   UNL     1       2.535   2.942   2.176  0.00  0.00    +0.004 A 
ATOM     25  C   UNL     1       2.359   1.597   1.910  0.00  0.00    -0.042 A 
ATOM     26  C   UNL     1       1.098   1.036   1.990  0.00  0.00    +0.004 A 
ATOM     27  C   UNL     1       0.013   1.821   2.334  0.00  0.00    +0.000 A 
ENDBRANCH  19  25
ENDBRANCH  18  21
ENDBRANCH   1  18
TORSDOF 4
