REMARK  Name = CHEMBL571056
REMARK  10 active torsions:
REMARK  status: ('A' for Active; 'I' for Inactive)
REMARK    1  A    between atoms: C_1  and  C_2
REMARK    2  A    between atoms: C_2  and  C_3
REMARK    3  A    between atoms: C_8  and  N_9
REMARK    4  A    between atoms: C_13  and  C_36
REMARK    5  A    between atoms: C_14  and  C_16
REMARK    6  A    between atoms: CA_18  and  C_22
REMARK    7  A    between atoms: N_24  and  CA_25
REMARK    8  A    between atoms: CA_25  and  C_27
REMARK    9  A    between atoms: CA_25  and  C_29
REMARK   10  A    between atoms: C_27  and  O_28
REMARK                            x       y       z     vdW  Elec       q    Type
REMARK                         _______ _______ _______ _____ _____    ______ ____
ROOT
ATOM      1  C   UNL     1      -1.934   0.127  -7.319  0.00  0.00    +0.019 A 
ATOM      2  C   UNL     1      -1.164   1.274  -7.596  0.00  0.00    +0.042 A 
ATOM      3  CA  UNL     1      -0.834   1.225  -8.920  0.00  0.00    +0.102 A 
ATOM      4  N   UNL     1      -1.381   0.082  -9.458  0.00  0.00    -0.356 N 
ATOM      5  H   UNL     1      -1.301  -0.200 -10.383  0.00  0.00    +0.165 HD
ATOM      6  C   UNL     1      -2.042  -0.586  -8.493  0.00  0.00    +0.093 A 
ENDROOT
BRANCH   1  12
ATOM      7  N   UNL     1      -2.806  -3.135  -3.937  0.00  0.00    -0.283 N 
ATOM      8  C   UNL     1      -2.930  -1.829  -4.381  0.00  0.00    +0.220 A 
ATOM      9  N   UNL     1      -3.565  -0.947  -3.623  0.00  0.00    -0.222 NA
ATOM     10  C   UNL     1      -3.705   0.311  -4.012  0.00  0.00    +0.120 A 
ATOM     11  C   UNL     1      -3.180   0.706  -5.229  0.00  0.00    -0.006 A 
ATOM     12  C   UNL     1      -2.515  -0.246  -6.007  0.00  0.00    +0.080 A 
ATOM     13  N   UNL     1      -2.408  -1.492  -5.550  0.00  0.00    -0.214 NA
ATOM     14  C   UNL     1      -3.320   2.129  -5.704  0.00  0.00    +0.047 C 
ATOM     15  H   UNL     1      -2.414  -3.808  -4.515  0.00  0.00    +0.155 HD
BRANCH   7  21
ATOM     16  C   UNL     1      -3.755  -4.750  -2.415  0.00  0.00    -0.026 A 
ATOM     17  C   UNL     1      -4.182  -5.092  -1.146  0.00  0.00    +0.005 A 
ATOM     18  C   UNL     1      -4.105  -4.171  -0.118  0.00  0.00    +0.000 A 
ATOM     19  C   UNL     1      -3.601  -2.905  -0.355  0.00  0.00    +0.002 A 
ATOM     20  C   UNL     1      -3.172  -2.557  -1.621  0.00  0.00    +0.023 A 
ATOM     21  C   UNL     1      -3.243  -3.482  -2.655  0.00  0.00    +0.037 A 
BRANCH  16  23
ATOM     22  C   UNL     1      -2.499  -6.482  -3.670  0.00  0.00    +0.009 C 
ATOM     23  C   UNL     1      -3.839  -5.755  -3.535  0.00  0.00    +0.033 C 
ENDBRANCH  16  23
ENDBRANCH   7  21
ENDBRANCH   1  12
BRANCH   3  24
ATOM     24  C   UNL     1      -0.035   2.220  -9.646  0.00  0.00    +0.261 C 
ATOM     25  O   UNL     1       0.398   3.195  -9.062  0.00  0.00    -0.269 OA
ATOM     26  N   UNL     1       0.220   2.052 -10.958  0.00  0.00    -0.301 N 
ATOM     27  H   UNL     1      -0.126   1.274 -11.424  0.00  0.00    +0.150 HD
BRANCH  26  28
ATOM     28  CA  UNL     1       1.017   3.045 -11.682  0.00  0.00    +0.129 C 
BRANCH  28  29
ATOM     29  C   UNL     1       1.667   2.393 -12.876  0.00  0.00    -0.024 A 
ATOM     30  C   UNL     1       0.961   1.478 -13.633  0.00  0.00    +0.005 A 
ATOM     31  C   UNL     1       1.556   0.880 -14.728  0.00  0.00    +0.002 A 
ATOM     32  C   UNL     1       2.858   1.197 -15.066  0.00  0.00    +0.020 A 
ATOM     33  C   UNL     1       3.566   2.113 -14.309  0.00  0.00    +0.041 A 
ATOM     34  C   UNL     1       2.967   2.716 -13.216  0.00  0.00    +0.025 A 
ATOM     35 CL   UNL     1       5.201   2.512 -14.732  0.00  0.00    -0.084 Cl
ENDBRANCH  28  29
BRANCH  28  36
ATOM     36  C   UNL     1       0.110   4.183 -12.153  0.00  0.00    +0.182 C 
BRANCH  36  37
ATOM     37  O   UNL     1      -0.827   3.681 -13.109  0.00  0.00    -0.393 OA
ATOM     38  H   UNL     1      -1.435   4.350 -13.452  0.00  0.00    +0.209 HD
ENDBRANCH  36  37
ENDBRANCH  28  36
ENDBRANCH  26  28
ENDBRANCH   3  24
TORSDOF 8
