REMARK  Name = CHEMBL576683
REMARK  8 active torsions:
REMARK  status: ('A' for Active; 'I' for Inactive)
REMARK    1  A    between atoms: C_1  and  C_2
REMARK    2  A    between atoms: C_7  and  C_8
REMARK    3  A    between atoms: CA_10  and  C_14
REMARK    4  A    between atoms: N_16  and  CA_17
REMARK    5  A    between atoms: CA_17  and  C_19
REMARK    6  A    between atoms: CA_17  and  C_21
REMARK    7  A    between atoms: C_19  and  O_20
REMARK    8  A    between atoms: N_28  and  C_29
REMARK                            x       y       z     vdW  Elec       q    Type
REMARK                         _______ _______ _______ _____ _____    ______ ____
ROOT
ATOM      1  C   UNL     1       0.641  -0.030   2.450  0.00  0.00    +0.019 A 
ATOM      2  C   UNL     1       0.192  -0.432   3.724  0.00  0.00    +0.042 A 
ATOM      3  CA  UNL     1       0.643   0.495   4.619  0.00  0.00    +0.102 A 
ATOM      4  N   UNL     1       1.355   1.450   3.928  0.00  0.00    -0.356 N 
ATOM      5  H   UNL     1       1.787   2.224   4.321  0.00  0.00    +0.165 HD
ATOM      6  C   UNL     1       1.360   1.132   2.619  0.00  0.00    +0.093 A 
ENDROOT
BRANCH   1  13
ATOM      7  C   UNL     1       0.269   1.499  -0.012  0.00  0.00    +0.047 C 
ATOM      8  C   UNL     1       0.212  -0.007  -0.014  0.00  0.00    -0.006 A 
ATOM      9  C   UNL     1      -0.013  -0.704  -1.187  0.00  0.00    +0.120 A 
ATOM     10  N   UNL     1      -0.057  -2.027  -1.155  0.00  0.00    -0.222 NA
ATOM     11  C   UNL     1       0.111  -2.689  -0.019  0.00  0.00    +0.220 A 
ATOM     12  N   UNL     1       0.328  -2.061   1.126  0.00  0.00    -0.214 NA
ATOM     13  C   UNL     1       0.391  -0.731   1.168  0.00  0.00    +0.080 A 
ATOM     14  N   UNL     1       0.057  -4.072  -0.030  0.00  0.00    -0.281 N 
ATOM     15  H   UNL     1       0.090  -4.566   0.805  0.00  0.00    +0.155 HD
BRANCH  14  16
ATOM     16  C   UNL     1      -0.046  -4.760  -1.246  0.00  0.00    +0.080 A 
ATOM     17  C   UNL     1       0.533  -4.234  -2.393  0.00  0.00    +0.027 A 
ATOM     18  C   UNL     1       0.432  -4.912  -3.593  0.00  0.00    +0.006 A 
ATOM     19  C   UNL     1      -0.245  -6.115  -3.656  0.00  0.00    +0.050 A 
ATOM     20  C   UNL     1      -0.827  -6.649  -2.516  0.00  0.00    +0.175 A 
ATOM     21  C   UNL     1      -0.723  -5.974  -1.305  0.00  0.00    +0.194 A 
ATOM     22  O   UNL     1      -1.366  -6.700  -0.343  0.00  0.00    -0.394 OA
ATOM     23  C   UNL     1      -2.207  -7.625  -1.058  0.00  0.00    +0.589 C 
ATOM     24  O   UNL     1      -1.536  -7.798  -2.316  0.00  0.00    -0.395 OA
ATOM     25  F   UNL     1      -2.297  -8.839  -0.370  0.00  0.00    -0.125 F 
ATOM     26  F   UNL     1      -3.478  -7.077  -1.262  0.00  0.00    -0.125 F 
ENDBRANCH  14  16
ENDBRANCH   1  13
BRANCH   3  27
ATOM     27  C   UNL     1       0.411   0.477   6.068  0.00  0.00    +0.261 C 
ATOM     28  O   UNL     1      -0.237  -0.423   6.569  0.00  0.00    -0.269 OA
ATOM     29  N   UNL     1       0.915   1.457   6.844  0.00  0.00    -0.301 N 
ATOM     30  H   UNL     1       1.432   2.175   6.444  0.00  0.00    +0.150 HD
BRANCH  29  31
ATOM     31  CA  UNL     1       0.683   1.440   8.290  0.00  0.00    +0.129 C 
BRANCH  31  32
ATOM     32  C   UNL     1       1.780   2.204   8.985  0.00  0.00    -0.024 A 
ATOM     33  C   UNL     1       2.256   3.381   8.436  0.00  0.00    +0.005 A 
ATOM     34  C   UNL     1       3.262   4.083   9.073  0.00  0.00    +0.002 A 
ATOM     35  C   UNL     1       3.793   3.609  10.257  0.00  0.00    +0.020 A 
ATOM     36  C   UNL     1       3.318   2.432  10.806  0.00  0.00    +0.041 A 
ATOM     37  C   UNL     1       2.306   1.733  10.172  0.00  0.00    +0.025 A 
ATOM     38 CL   UNL     1       3.984   1.836  12.294  0.00  0.00    -0.084 Cl
ENDBRANCH  31  32
BRANCH  31  39
ATOM     39  C   UNL     1      -0.667   2.091   8.598  0.00  0.00    +0.182 C 
BRANCH  39  40
ATOM     40  O   UNL     1      -0.621   3.474   8.239  0.00  0.00    -0.393 OA
ATOM     41  H   UNL     1      -1.445   3.951   8.408  0.00  0.00    +0.209 HD
ENDBRANCH  39  40
ENDBRANCH  31  39
ENDBRANCH  29  31
ENDBRANCH   3  27
TORSDOF 7
