REMARK  Name = CHEMBL220888
REMARK  6 active torsions:
REMARK  status: ('A' for Active; 'I' for Inactive)
REMARK    1  A    between atoms: C_4  and  C_7
REMARK    2  A    between atoms: C_7  and  C_9
REMARK    3  A    between atoms: C_7  and  N_12
REMARK    4  A    between atoms: C_13  and  C_15
REMARK    5  A    between atoms: C_17  and  C_21
REMARK    6  A    between atoms: C_22  and  C_27
REMARK                            x       y       z     vdW  Elec       q    Type
REMARK                         _______ _______ _______ _____ _____    ______ ____
ROOT
ATOM      1  C   UNL     1       5.303  -3.599  -1.994  0.00  0.00    +0.102 A 
ATOM      2  C   UNL     1       6.182  -4.197  -2.851  0.00  0.00    +0.042 A 
ATOM      3  C   UNL     1       5.487  -5.239  -3.499  0.00  0.00    +0.018 A 
ATOM      4  C   UNL     1       4.199  -5.236  -3.008  0.00  0.00    +0.093 A 
ATOM      5  N   UNL     1       4.093  -4.249  -2.096  0.00  0.00    -0.356 N 
ATOM      6  H   UNL     1       3.293  -4.030  -1.594  0.00  0.00    +0.165 HD
ENDROOT
BRANCH   3   7
ATOM      7  C   UNL     1       6.037  -6.162  -4.515  0.00  0.00    +0.075 A 
ATOM      8  C   UNL     1       6.810  -5.814  -5.614  0.00  0.00    +0.027 A 
ATOM      9  C   UNL     1       7.111  -7.002  -6.305  0.00  0.00    +0.143 A 
ATOM     10  N   UNL     1       6.560  -8.002  -5.672  0.00  0.00    -0.181 NA
ATOM     11  N   UNL     1       5.886  -7.515  -4.546  0.00  0.00    -0.276 N 
ATOM     12  H   UNL     1       5.394  -8.049  -3.902  0.00  0.00    +0.189 HD
BRANCH   8  13
ATOM     13  C   UNL     1       7.239  -4.446  -5.989  0.00  0.00    -0.013 A 
ATOM     14  C   UNL     1       6.290  -3.439  -6.163  0.00  0.00    +0.009 A 
ATOM     15  C   UNL     1       6.694  -2.166  -6.513  0.00  0.00    +0.002 A 
ATOM     16  C   UNL     1       8.038  -1.888  -6.690  0.00  0.00    +0.020 A 
ATOM     17  C   UNL     1       8.985  -2.884  -6.518  0.00  0.00    +0.042 A 
ATOM     18  C   UNL     1       8.592  -4.160  -6.163  0.00  0.00    +0.028 A 
ATOM     19 CL   UNL     1      10.668  -2.527  -6.744  0.00  0.00    -0.084 Cl
ENDBRANCH   8  13
ENDBRANCH   3   7
BRANCH   1  21
ATOM     20  N   UNL     1       4.637  -1.968  -0.308  0.00  0.00    -0.295 N 
ATOM     21  C   UNL     1       5.597  -2.464  -1.113  0.00  0.00    +0.261 C 
ATOM     22  O   UNL     1       6.709  -1.969  -1.109  0.00  0.00    -0.269 OA
ATOM     23  H   UNL     1       3.751  -2.363  -0.311  0.00  0.00    +0.150 HD
BRANCH  20  24
ATOM     24  C   UNL     1       4.931  -0.835   0.572  0.00  0.00    +0.190 C 
BRANCH  24  28
ATOM     25  C   UNL     1       1.314   1.262   1.449  0.00  0.00    +0.000 A 
ATOM     26  C   UNL     1       2.480   1.965   1.210  0.00  0.00    +0.000 A 
ATOM     27  C   UNL     1       3.651   1.287   0.927  0.00  0.00    +0.006 A 
ATOM     28  C   UNL     1       3.655  -0.095   0.882  0.00  0.00    -0.018 A 
ATOM     29  C   UNL     1       2.489  -0.798   1.122  0.00  0.00    +0.006 A 
ATOM     30  C   UNL     1       1.319  -0.119   1.404  0.00  0.00    +0.000 A 
ENDBRANCH  24  28
BRANCH  24  31
ATOM     31  C   UNL     1       5.543  -1.339   1.853  0.00  0.00    +0.235 C 
ATOM     32  O   UNL     1       5.717  -2.529   2.016  0.00  0.00    -0.274 OA
ATOM     33  N   UNL     1       5.898  -0.469   2.819  0.00  0.00    -0.328 N 
ATOM     34  H   UNL     1       5.760   0.483   2.689  0.00  0.00    +0.145 HD
ATOM     35  H   UNL     1       6.292  -0.793   3.644  0.00  0.00    +0.145 HD
ENDBRANCH  24  31
ENDBRANCH  20  24
ENDBRANCH   1  21
TORSDOF 6
