REMARK  Name = CHEMBL373628
REMARK  6 active torsions:
REMARK  status: ('A' for Active; 'I' for Inactive)
REMARK    1  A    between atoms: C_1  and  C_2
REMARK    2  A    between atoms: C_2  and  C_4
REMARK    3  A    between atoms: C_2  and  N_10
REMARK    4  A    between atoms: C_11  and  C_13
REMARK    5  A    between atoms: C_15  and  C_19
REMARK    6  A    between atoms: C_20  and  C_25
REMARK                            x       y       z     vdW  Elec       q    Type
REMARK                         _______ _______ _______ _____ _____    ______ ____
ROOT
ATOM      1  C   UNL     1       2.763  -1.086   2.362  0.00  0.00    +0.102 A 
ATOM      2  C   UNL     1       4.116  -1.240   2.484  0.00  0.00    +0.042 A 
ATOM      3  C   UNL     1       4.361  -1.727   3.782  0.00  0.00    +0.021 A 
ATOM      4  C   UNL     1       3.153  -1.853   4.407  0.00  0.00    +0.093 A 
ATOM      5  N   UNL     1       2.185  -1.461   3.554  0.00  0.00    -0.356 N 
ATOM      6  H   UNL     1       1.234  -1.448   3.747  0.00  0.00    +0.165 HD
ENDROOT
BRANCH   3   7
ATOM      7  C   UNL     1       5.689  -2.046   4.365  0.00  0.00    +0.102 A 
ATOM      8  C   UNL     1       6.071  -1.868   5.718  0.00  0.00    +0.027 A 
ATOM      9  C   UNL     1       7.364  -2.282   5.836  0.00  0.00    +0.114 A 
ATOM     10  N   UNL     1       7.777  -2.698   4.621  0.00  0.00    -0.284 N 
ATOM     11  N   UNL     1       6.718  -2.547   3.718  0.00  0.00    -0.173 NA
ATOM     12  H   UNL     1       8.658  -3.045   4.410  0.00  0.00    +0.188 HD
BRANCH   8  13
ATOM     13  C   UNL     1       5.219  -1.331   6.807  0.00  0.00    -0.013 A 
ATOM     14  C   UNL     1       4.518  -0.140   6.624  0.00  0.00    +0.009 A 
ATOM     15  C   UNL     1       3.726   0.356   7.640  0.00  0.00    +0.002 A 
ATOM     16  C   UNL     1       3.627  -0.327   8.839  0.00  0.00    +0.020 A 
ATOM     17  C   UNL     1       4.321  -1.510   9.027  0.00  0.00    +0.042 A 
ATOM     18  C   UNL     1       5.112  -2.018   8.014  0.00  0.00    +0.028 A 
ATOM     19 CL   UNL     1       4.192  -2.359  10.536  0.00  0.00    -0.084 Cl
ENDBRANCH   8  13
ENDBRANCH   3   7
BRANCH   1  21
ATOM     20  N   UNL     1       0.711  -0.489   1.189  0.00  0.00    -0.304 N 
ATOM     21  C   UNL     1       2.054  -0.600   1.174  0.00  0.00    +0.261 C 
ATOM     22  O   UNL     1       2.678  -0.296   0.174  0.00  0.00    -0.269 OA
ATOM     23  H   UNL     1       0.213  -0.731   1.986  0.00  0.00    +0.150 HD
BRANCH  20  25
ATOM     24  C   UNL     1      -0.019   1.526   0.010  0.00  0.00    +0.033 C 
ATOM     25  C   UNL     1       0.002  -0.004   0.002  0.00  0.00    +0.100 C 
BRANCH  25  26
ATOM     26  C   UNL     1      -1.412  -0.526   0.013  0.00  0.00    -0.027 A 
ATOM     27  C   UNL     1      -2.123  -0.571   1.197  0.00  0.00    +0.005 A 
ATOM     28  C   UNL     1      -3.420  -1.049   1.207  0.00  0.00    +0.000 A 
ATOM     29  C   UNL     1      -4.006  -1.482   0.032  0.00  0.00    +0.000 A 
ATOM     30  C   UNL     1      -3.295  -1.436  -1.153  0.00  0.00    +0.000 A 
ATOM     31  C   UNL     1      -2.000  -0.954  -1.163  0.00  0.00    +0.005 A 
ENDBRANCH  25  26
ENDBRANCH  20  25
ENDBRANCH   1  21
TORSDOF 5
