REMARK  Name = CHEMBL219988
REMARK  7 active torsions:
REMARK  status: ('A' for Active; 'I' for Inactive)
REMARK    1  A    between atoms: C_5  and  CA_7
REMARK    2  A    between atoms: CA_7  and  C_8
REMARK    3  A    between atoms: CA_7  and  N_10
REMARK    4  A    between atoms: C_8  and  O_9
REMARK    5  A    between atoms: C_11  and  CA_13
REMARK    6  A    between atoms: C_15  and  C_19
REMARK    7  A    between atoms: C_20  and  C_25
REMARK                            x       y       z     vdW  Elec       q    Type
REMARK                         _______ _______ _______ _____ _____    ______ ____
ROOT
ATOM      1  CA  UNL     1      -1.312  -4.410  -1.745  0.00  0.00    +0.102 A 
ATOM      2  C   UNL     1      -1.490  -5.623  -2.348  0.00  0.00    +0.042 A 
ATOM      3  C   UNL     1      -2.838  -5.691  -2.751  0.00  0.00    +0.021 A 
ATOM      4  C   UNL     1      -3.435  -4.520  -2.381  0.00  0.00    +0.093 A 
ATOM      5  N   UNL     1      -2.517  -3.744  -1.767  0.00  0.00    -0.356 N 
ATOM      6  H   UNL     1      -2.680  -2.860  -1.403  0.00  0.00    +0.165 HD
ENDROOT
BRANCH   3   7
ATOM      7  C   UNL     1      -3.490  -6.827  -3.449  0.00  0.00    +0.102 A 
ATOM      8  C   UNL     1      -4.829  -7.256  -3.275  0.00  0.00    +0.027 A 
ATOM      9  C   UNL     1      -5.027  -8.324  -4.099  0.00  0.00    +0.114 A 
ATOM     10  N   UNL     1      -3.874  -8.556  -4.758  0.00  0.00    -0.284 N 
ATOM     11  N   UNL     1      -2.929  -7.610  -4.343  0.00  0.00    -0.173 NA
ATOM     12  H   UNL     1      -3.725  -9.258  -5.411  0.00  0.00    +0.188 HD
BRANCH   8  13
ATOM     13  C   UNL     1      -5.832  -6.654  -2.363  0.00  0.00    -0.013 A 
ATOM     14  C   UNL     1      -5.508  -6.413  -1.029  0.00  0.00    +0.009 A 
ATOM     15  C   UNL     1      -6.445  -5.852  -0.184  0.00  0.00    +0.002 A 
ATOM     16  C   UNL     1      -7.703  -5.529  -0.659  0.00  0.00    +0.020 A 
ATOM     17  C   UNL     1      -8.030  -5.765  -1.982  0.00  0.00    +0.042 A 
ATOM     18  C   UNL     1      -7.099  -6.321  -2.838  0.00  0.00    +0.028 A 
ATOM     19 CL   UNL     1      -9.612  -5.357  -2.570  0.00  0.00    -0.084 Cl
ENDBRANCH   8  13
ENDBRANCH   3   7
BRANCH   1  21
ATOM     20  N   UNL     1      -0.023  -2.688  -0.596  0.00  0.00    -0.301 N 
ATOM     21  C   UNL     1      -0.060  -3.907  -1.170  0.00  0.00    +0.261 C 
ATOM     22  O   UNL     1       0.946  -4.591  -1.210  0.00  0.00    -0.269 OA
ATOM     23  H   UNL     1      -0.824  -2.143  -0.564  0.00  0.00    +0.150 HD
BRANCH  20  24
ATOM     24  CA  UNL     1       1.228  -2.186  -0.022  0.00  0.00    +0.132 C 
BRANCH  24  29
ATOM     25  C   UNL     1      -0.017   1.378   0.010  0.00  0.00    +0.000 A 
ATOM     26  C   UNL     1       1.171   2.087   0.002  0.00  0.00    +0.003 A 
ATOM     27  C   UNL     1       2.377   1.414  -0.013  0.00  0.00    +0.039 A 
ATOM     28  C   UNL     1       2.397   0.029  -0.021  0.00  0.00    +0.128 A 
ATOM     29  C   UNL     1       1.208  -0.679  -0.013  0.00  0.00    +0.010 A 
ATOM     30  C   UNL     1       0.002  -0.004   0.002  0.00  0.00    +0.008 A 
ATOM     31  F   UNL     1       3.577  -0.630  -0.036  0.00  0.00    -0.205 F 
ENDBRANCH  24  29
BRANCH  24  32
ATOM     32  C   UNL     1       1.375  -2.703   1.411  0.00  0.00    +0.183 C 
BRANCH  32  33
ATOM     33  O   UNL     1       0.337  -2.151   2.224  0.00  0.00    -0.393 OA
ATOM     34  H   UNL     1       0.368  -2.436   3.148  0.00  0.00    +0.209 HD
ENDBRANCH  32  33
ENDBRANCH  24  32
ENDBRANCH  20  24
ENDBRANCH   1  21
TORSDOF 7
