REMARK  Name = CHEMBL397332
REMARK  3 active torsions:
REMARK  status: ('A' for Active; 'I' for Inactive)
REMARK    1  A    between atoms: C_1  and  C_2
REMARK    2  A    between atoms: C_11  and  C_17
REMARK    3  A    between atoms: C_22  and  C_25
REMARK                            x       y       z     vdW  Elec       q    Type
REMARK                         _______ _______ _______ _____ _____    ______ ____
ROOT
ATOM      1  C   UNL     1      -0.019   1.526   0.010  0.00  0.00    +0.014 C 
ATOM      2  C   UNL     1       0.002  -0.004   0.002  0.00  0.00    +0.036 C 
ATOM      3  C   UNL     1      -1.431  -0.536   0.028  0.00  0.00    +0.112 C 
ATOM      4  N   UNL     1      -2.062  -0.376   1.331  0.00  0.00    -0.310 N 
ATOM      5  C   UNL     1      -1.391  -0.558   2.491  0.00  0.00    +0.261 C 
ATOM      6  O   UNL     1      -1.962  -0.550   3.564  0.00  0.00    -0.269 OA
ATOM      7  C   UNL     1       0.065  -0.768   2.395  0.00  0.00    +0.106 A 
ATOM      8  C   UNL     1       0.730  -0.505   1.222  0.00  0.00    -0.006 A 
ATOM      9  C   UNL     1       2.079  -0.790   1.431  0.00  0.00    +0.005 A 
ATOM     10  C   UNL     1       3.201  -0.707   0.598  0.00  0.00    +0.023 A 
ATOM     11  C   UNL     1       4.426  -1.083   1.153  0.00  0.00    +0.038 A 
ATOM     12  C   UNL     1       4.529  -1.522   2.478  0.00  0.00    +0.015 A 
ATOM     13  C   UNL     1       3.441  -1.608   3.305  0.00  0.00    +0.027 A 
ATOM     14  C   UNL     1       2.202  -1.238   2.778  0.00  0.00    +0.047 A 
ATOM     15  N   UNL     1       0.959  -1.213   3.337  0.00  0.00    -0.350 N 
ATOM     16  H   UNL     1       0.742  -1.467   4.248  0.00  0.00    +0.166 HD
ATOM     17  H   UNL     1      -3.000  -0.130   1.369  0.00  0.00    +0.149 HD
ENDROOT
BRANCH  11  18
ATOM     18  C   UNL     1       5.643  -1.016   0.321  0.00  0.00    +0.250 C 
ATOM     19  O   UNL     1       5.572  -0.637  -0.832  0.00  0.00    -0.270 OA
ATOM     20  N   UNL     1       6.835  -1.375   0.839  0.00  0.00    -0.261 N 
ATOM     21  C   UNL     1       7.979  -1.312   0.057  0.00  0.00    +0.165 A 
ATOM     22  N   UNL     1       9.220  -1.620   0.375  0.00  0.00    -0.220 NA
ATOM     23  C   UNL     1      10.167  -1.477  -0.557  0.00  0.00    +0.134 A 
ATOM     24  C   UNL     1       9.814  -1.019  -1.795  0.00  0.00    +0.081 A 
ATOM     25  S   UNL     1       8.152  -0.799  -1.643  0.00  0.00    -0.060 S 
ATOM     26  H   UNL     1       6.892  -1.677   1.759  0.00  0.00    +0.157 HD
BRANCH  23  27
ATOM     27  C   UNL     1      11.570  -1.807  -0.254  0.00  0.00    +0.260 C 
ATOM     28  O   UNL     1      12.424  -1.673  -1.109  0.00  0.00    -0.269 OA
ATOM     29  N   UNL     1      11.906  -2.259   0.970  0.00  0.00    -0.324 N 
ATOM     30  H   UNL     1      11.225  -2.366   1.652  0.00  0.00    +0.145 HD
ATOM     31  H   UNL     1      12.830  -2.476   1.170  0.00  0.00    +0.145 HD
ENDBRANCH  23  27
ENDBRANCH  11  18
TORSDOF 2
