REMARK  Name = CHEMBL599428
REMARK  4 active torsions:
REMARK  status: ('A' for Active; 'I' for Inactive)
REMARK    1  A    between atoms: C_1  and  N_2
REMARK    2  A    between atoms: C_5  and  C_7
REMARK    3  A    between atoms: N_18  and  C_19
REMARK    4  A    between atoms: C_25  and  C_27
REMARK                            x       y       z     vdW  Elec       q    Type
REMARK                         _______ _______ _______ _____ _____    ______ ____
ROOT
ATOM      1  C   UNL     1       0.876   3.736   0.643  0.00  0.00    +0.173 C 
ATOM      2  N   UNL     1       1.057   2.325   0.994  0.00  0.00    -0.264 N 
ATOM      3  C   UNL     1       1.083   1.305   0.115  0.00  0.00    +0.091 A 
ATOM      4  C   UNL     1       1.294   0.153   0.841  0.00  0.00    +0.012 A 
ATOM      5  C   UNL     1       1.364   0.556   2.175  0.00  0.00    +0.151 A 
ATOM      6  N   UNL     1       1.219   1.873   2.192  0.00  0.00    -0.166 NA
ATOM      7  C   UNL     1       1.422  -1.196   0.196  0.00  0.00    +0.044 C 
ATOM      8  C   UNL     1       0.567  -1.246  -1.071  0.00  0.00    +0.043 C 
ATOM      9  C   UNL     1       0.729  -0.020  -1.922  0.00  0.00    -0.001 A 
ATOM     10  C   UNL     1       0.957   1.240  -1.351  0.00  0.00    +0.097 A 
ATOM     11  N   UNL     1       1.057   2.308  -2.128  0.00  0.00    -0.213 NA
ATOM     12  C   UNL     1       0.964   2.184  -3.445  0.00  0.00    +0.216 A 
ATOM     13  N   UNL     1       0.772   1.004  -4.019  0.00  0.00    -0.223 NA
ATOM     14  C   UNL     1       0.650  -0.101  -3.300  0.00  0.00    +0.120 A 
ATOM     15  N   UNL     1       1.069   3.312  -4.240  0.00  0.00    -0.311 N 
ATOM     16  H   UNL     1       1.210   4.181  -3.832  0.00  0.00    +0.149 HD
ENDROOT
BRANCH  15  17
ATOM     17  C   UNL     1       0.969   3.195  -5.697  0.00  0.00    +0.076 C 
ATOM     18  C   UNL     1       2.340   2.836  -6.275  0.00  0.00    +0.041 C 
ATOM     19  C   UNL     1       2.223   2.680  -7.795  0.00  0.00    +0.110 C 
ATOM     20  N   UNL     1       1.634   3.905  -8.352  0.00  0.00    -0.297 N 
ATOM     21  C   UNL     1       0.360   4.389  -7.804  0.00  0.00    +0.110 C 
ATOM     22  C   UNL     1       0.497   4.527  -6.285  0.00  0.00    +0.041 C 
ATOM     23  C   UNL     1       2.252   4.572  -9.347  0.00  0.00    +0.247 C 
ATOM     24  O   UNL     1       1.721   5.545  -9.847  0.00  0.00    -0.270 OA
BRANCH  23  25
ATOM     25  C   UNL     1       3.574   4.121  -9.831  0.00  0.00    +0.037 A 
ATOM     26  C   UNL     1       3.773   2.785 -10.183  0.00  0.00    +0.013 A 
ATOM     27  C   UNL     1       5.009   2.371 -10.634  0.00  0.00    +0.001 A 
ATOM     28  C   UNL     1       6.050   3.276 -10.737  0.00  0.00    +0.000 A 
ATOM     29  C   UNL     1       5.860   4.602 -10.390  0.00  0.00    +0.001 A 
ATOM     30  C   UNL     1       4.627   5.030  -9.943  0.00  0.00    +0.013 A 
ENDBRANCH  23  25
ENDBRANCH  15  17
BRANCH   5  31
ATOM     31  C   UNL     1       1.567  -0.320   3.348  0.00  0.00    +0.262 C 
ATOM     32  O   UNL     1       1.691  -1.520   3.196  0.00  0.00    -0.269 OA
ATOM     33  N   UNL     1       1.614   0.211   4.585  0.00  0.00    -0.324 N 
ATOM     34  H   UNL     1       1.514   1.169   4.706  0.00  0.00    +0.145 HD
ATOM     35  H   UNL     1       1.747  -0.364   5.355  0.00  0.00    +0.145 HD
ENDBRANCH   5  31
TORSDOF 3
