REMARK  Name = CHEMBL582829
REMARK  9 active torsions:
REMARK  status: ('A' for Active; 'I' for Inactive)
REMARK    1  A    between atoms: C_1  and  C_2
REMARK    2  A    between atoms: C_7  and  C_8
REMARK    3  A    between atoms: CA_10  and  C_14
REMARK    4  A    between atoms: N_16  and  CA_17
REMARK    5  A    between atoms: CA_17  and  C_19
REMARK    6  A    between atoms: CA_17  and  C_21
REMARK    7  A    between atoms: C_19  and  O_20
REMARK    8  A    between atoms: N_28  and  C_29
REMARK    9  A    between atoms: C_34  and  C_35
REMARK                            x       y       z     vdW  Elec       q    Type
REMARK                         _______ _______ _______ _____ _____    ______ ____
ROOT
ATOM      1  C   UNL     1      -0.013  -0.022   2.503  0.00  0.00    +0.019 A 
ATOM      2  C   UNL     1      -0.661  -0.453   3.678  0.00  0.00    +0.042 A 
ATOM      3  CA  UNL     1      -0.422   0.490   4.637  0.00  0.00    +0.102 A 
ATOM      4  N   UNL     1       0.352   1.483   4.080  0.00  0.00    -0.356 N 
ATOM      5  H   UNL     1       0.668   2.276   4.541  0.00  0.00    +0.165 HD
ATOM      6  C   UNL     1       0.606   1.174   2.794  0.00  0.00    +0.093 A 
ENDROOT
BRANCH   1  13
ATOM      7  C   UNL     1      -0.018   1.503   0.010  0.00  0.00    +0.047 C 
ATOM      8  C   UNL     1       0.003  -0.004   0.002  0.00  0.00    -0.006 A 
ATOM      9  C   UNL     1       0.025  -0.705  -1.190  0.00  0.00    +0.120 A 
ATOM     10  N   UNL     1       0.043  -2.028  -1.163  0.00  0.00    -0.222 NA
ATOM     11  C   UNL     1       0.038  -2.688  -0.013  0.00  0.00    +0.220 A 
ATOM     12  N   UNL     1       0.017  -2.057   1.150  0.00  0.00    -0.214 NA
ATOM     13  C   UNL     1       0.005  -0.726   1.199  0.00  0.00    +0.080 A 
ATOM     14  N   UNL     1       0.057  -4.073  -0.030  0.00  0.00    -0.283 N 
ATOM     15  H   UNL     1       0.141  -4.567   0.801  0.00  0.00    +0.155 HD
BRANCH  14  16
ATOM     16  C   UNL     1      -0.045  -4.759  -1.243  0.00  0.00    +0.039 A 
ATOM     17  C   UNL     1      -0.664  -4.159  -2.333  0.00  0.00    +0.024 A 
ATOM     18  C   UNL     1      -0.764  -4.838  -3.531  0.00  0.00    +0.005 A 
ATOM     19  C   UNL     1      -0.248  -6.115  -3.648  0.00  0.00    +0.039 A 
ATOM     20  C   UNL     1       0.370  -6.718  -2.565  0.00  0.00    +0.128 A 
ATOM     21  C   UNL     1       0.478  -6.040  -1.364  0.00  0.00    +0.006 A 
ATOM     22  C   UNL     1       1.157  -6.692  -0.188  0.00  0.00    +0.048 C 
ATOM     23  F   UNL     1       0.874  -7.966  -2.683  0.00  0.00    -0.205 F 
ENDBRANCH  14  16
ENDBRANCH   1  13
BRANCH   3  24
ATOM     24  C   UNL     1      -0.907   0.451   6.021  0.00  0.00    +0.261 C 
ATOM     25  O   UNL     1      -1.587  -0.483   6.402  0.00  0.00    -0.269 OA
ATOM     26  N   UNL     1      -0.599   1.450   6.871  0.00  0.00    -0.301 N 
ATOM     27  H   UNL     1      -0.056   2.195   6.568  0.00  0.00    +0.150 HD
BRANCH  26  28
ATOM     28  CA  UNL     1      -1.083   1.412   8.254  0.00  0.00    +0.129 C 
BRANCH  28  29
ATOM     29  C   UNL     1      -0.166   2.226   9.130  0.00  0.00    -0.024 A 
ATOM     30  C   UNL     1       0.340   3.429   8.672  0.00  0.00    +0.005 A 
ATOM     31  C   UNL     1       1.180   4.176   9.475  0.00  0.00    +0.002 A 
ATOM     32  C   UNL     1       1.516   3.722  10.736  0.00  0.00    +0.020 A 
ATOM     33  C   UNL     1       1.010   2.519  11.195  0.00  0.00    +0.041 A 
ATOM     34  C   UNL     1       0.164   1.774  10.393  0.00  0.00    +0.025 A 
ATOM     35 CL   UNL     1       1.432   1.948  12.779  0.00  0.00    -0.084 Cl
ENDBRANCH  28  29
BRANCH  28  36
ATOM     36  C   UNL     1      -2.497   1.993   8.315  0.00  0.00    +0.182 C 
BRANCH  36  37
ATOM     37  O   UNL     1      -2.458   3.378   7.967  0.00  0.00    -0.393 OA
ATOM     38  H   UNL     1      -3.322   3.813   7.984  0.00  0.00    +0.209 HD
ENDBRANCH  36  37
ENDBRANCH  28  36
ENDBRANCH  26  28
ENDBRANCH   3  24
TORSDOF 7
