REMARK  Name = CHEMBL235345
REMARK  3 active torsions:
REMARK  status: ('A' for Active; 'I' for Inactive)
REMARK    1  A    between atoms: C_4  and  C_7
REMARK    2  A    between atoms: C_10  and  N_12
REMARK    3  A    between atoms: C_18  and  C_19
REMARK                            x       y       z     vdW  Elec       q    Type
REMARK                         _______ _______ _______ _____ _____    ______ ____
ROOT
ATOM      1  N   UNL     1       5.461  -0.450   2.144  0.00  0.00    -0.322 N 
ATOM      2  C   UNL     1       5.723  -1.137   3.300  0.00  0.00    +0.152 C 
ATOM      3  N   UNL     1       4.875  -1.502   4.248  0.00  0.00    -0.154 NA
ATOM      4  C   UNL     1       5.256  -2.164   5.318  0.00  0.00    +0.276 C 
ATOM      5  O   UNL     1       4.465  -2.496   6.186  0.00  0.00    -0.267 OA
ATOM      6  C   UNL     1       6.701  -2.486   5.411  0.00  0.00    +0.079 C 
ATOM      7  C   UNL     1       7.383  -3.149   6.379  0.00  0.00    +0.028 C 
ATOM      8  S   UNL     1       7.290  -1.762   3.886  0.00  0.00    -0.052 S 
ATOM      9  H   UNL     1       6.181  -0.248   1.526  0.00  0.00    +0.148 HD
ENDROOT
BRANCH   7  10
ATOM     10  C   UNL     1       8.850  -3.205   6.335  0.00  0.00    -0.023 A 
ATOM     11  C   UNL     1       9.563  -2.301   5.523  0.00  0.00    +0.010 A 
ATOM     12  C   UNL     1      10.918  -2.335   5.467  0.00  0.00    +0.029 A 
ATOM     13  C   UNL     1      11.634  -3.281   6.226  0.00  0.00    +0.071 A 
ATOM     14  C   UNL     1      10.928  -4.196   7.047  0.00  0.00    +0.001 A 
ATOM     15  C   UNL     1       9.528  -4.147   7.100  0.00  0.00    +0.018 A 
ATOM     16  C   UNL     1      11.654  -5.138   7.802  0.00  0.00    +0.011 A 
ATOM     17  C   UNL     1      13.017  -5.127   7.708  0.00  0.00    +0.020 A 
ATOM     18  C   UNL     1      13.648  -4.201   6.881  0.00  0.00    +0.111 A 
ATOM     19  N   UNL     1      12.969  -3.325   6.180  0.00  0.00    -0.255 NA
ENDBRANCH   7  10
BRANCH   1  22
ATOM     20  C   UNL     1       3.921   1.187   0.917  0.00  0.00    +0.041 C 
ATOM     21  C   UNL     1       3.591  -0.218   0.410  0.00  0.00    +0.032 C 
ATOM     22  C   UNL     1       4.094  -0.020   1.842  0.00  0.00    +0.080 C 
BRANCH  20  26
ATOM     23  C   UNL     1       0.650   3.821   1.698  0.00  0.00    +0.000 A 
ATOM     24  C   UNL     1       1.946   4.300   1.731  0.00  0.00    +0.000 A 
ATOM     25  C   UNL     1       3.005   3.448   1.478  0.00  0.00    +0.004 A 
ATOM     26  C   UNL     1       2.767   2.116   1.194  0.00  0.00    -0.042 A 
ATOM     27  C   UNL     1       1.471   1.636   1.162  0.00  0.00    +0.004 A 
ATOM     28  C   UNL     1       0.412   2.489   1.414  0.00  0.00    +0.000 A 
ENDBRANCH  20  26
ENDBRANCH   1  22
TORSDOF 3
