REMARK  Name = CHEMBL220110
REMARK  3 active torsions:
REMARK  status: ('A' for Active; 'I' for Inactive)
REMARK    1  A    between atoms: C_3  and  C_8
REMARK    2  A    between atoms: C_13  and  C_14
REMARK    3  A    between atoms: C_16  and  C_20
REMARK                            x       y       z     vdW  Elec       q    Type
REMARK                         _______ _______ _______ _____ _____    ______ ____
ROOT
ATOM      1  C   UNL     1       3.660   2.166  -0.022  0.00  0.00    +0.027 A 
ATOM      2  C   UNL     1       3.982   3.193  -0.858  0.00  0.00    +0.114 A 
ATOM      3  N   UNL     1       5.226   3.607  -0.543  0.00  0.00    -0.284 N 
ATOM      4  N   UNL     1       5.698   2.823   0.516  0.00  0.00    -0.173 NA
ATOM      5  H   UNL     1       5.711   4.327  -0.977  0.00  0.00    +0.188 HD
ATOM      6  C   UNL     1       4.764   1.958   0.842  0.00  0.00    +0.102 A 
ENDROOT
BRANCH   1   9
ATOM      7  C   UNL     1      -0.017   1.379   0.010  0.00  0.00    +0.002 A 
ATOM      8  C   UNL     1       1.168   2.088   0.002  0.00  0.00    +0.009 A 
ATOM      9  C   UNL     1       2.384   1.409  -0.013  0.00  0.00    -0.013 A 
ATOM     10  C   UNL     1       2.398   0.015  -0.021  0.00  0.00    +0.028 A 
ATOM     11  C   UNL     1       1.208  -0.685  -0.013  0.00  0.00    +0.042 A 
ATOM     12  C   UNL     1       0.002  -0.004   0.002  0.00  0.00    +0.020 A 
ATOM     13 CL   UNL     1       1.223  -2.421  -0.023  0.00  0.00    -0.084 Cl
ENDBRANCH   1   9
BRANCH   6  14
ATOM     14  C   UNL     1       4.851   0.941   1.920  0.00  0.00    +0.021 A 
ATOM     15  C   UNL     1       6.009   0.243   2.315  0.00  0.00    +0.042 A 
ATOM     16  C   UNL     1       5.646  -0.590   3.335  0.00  0.00    +0.103 A 
ATOM     17  N   UNL     1       4.300  -0.415   3.568  0.00  0.00    -0.356 N 
ATOM     18  H   UNL     1       3.779  -0.881   4.241  0.00  0.00    +0.165 HD
ATOM     19  C   UNL     1       3.825   0.515   2.714  0.00  0.00    +0.093 A 
BRANCH  16  20
ATOM     20  C   UNL     1       6.534  -1.510   4.056  0.00  0.00    +0.263 C 
ATOM     21  O   UNL     1       7.711  -1.577   3.757  0.00  0.00    -0.268 OA
ATOM     22  N   UNL     1       6.045  -2.280   5.048  0.00  0.00    -0.296 N 
ATOM     23  C   UNL     1       4.647  -2.304   5.505  0.00  0.00    +0.108 C 
ATOM     24  C   UNL     1       4.564  -3.311   6.671  0.00  0.00    +0.020 C 
ATOM     25  C   UNL     1       6.029  -3.379   7.177  0.00  0.00    +0.020 C 
ATOM     26  C   UNL     1       6.821  -3.243   5.850  0.00  0.00    +0.108 C 
ENDBRANCH  16  20
ENDBRANCH   6  14
TORSDOF 3
