REMARK  Name = CHEMBL569869
REMARK  8 active torsions:
REMARK  status: ('A' for Active; 'I' for Inactive)
REMARK    1  A    between atoms: C_1  and  C_2
REMARK    2  A    between atoms: C_7  and  C_8
REMARK    3  A    between atoms: CA_10  and  C_14
REMARK    4  A    between atoms: N_16  and  CA_17
REMARK    5  A    between atoms: CA_17  and  C_19
REMARK    6  A    between atoms: CA_17  and  C_21
REMARK    7  A    between atoms: C_19  and  O_20
REMARK    8  A    between atoms: N_28  and  C_29
REMARK                            x       y       z     vdW  Elec       q    Type
REMARK                         _______ _______ _______ _____ _____    ______ ____
ROOT
ATOM      1  C   UNL     1       0.322  -0.006   2.465  0.00  0.00    +0.019 A 
ATOM      2  C   UNL     1      -0.009  -0.464   3.757  0.00  0.00    +0.042 A 
ATOM      3  CA  UNL     1       0.387   0.501   4.638  0.00  0.00    +0.102 A 
ATOM      4  N   UNL     1       0.949   1.534   3.921  0.00  0.00    -0.356 N 
ATOM      5  H   UNL     1       1.313   2.349   4.300  0.00  0.00    +0.165 HD
ATOM      6  C   UNL     1       0.916   1.228   2.610  0.00  0.00    +0.093 A 
ENDROOT
BRANCH   1  13
ATOM      7  C   UNL     1      -0.353   1.488   0.047  0.00  0.00    +0.047 C 
ATOM      8  C   UNL     1      -0.241  -0.015   0.029  0.00  0.00    -0.006 A 
ATOM      9  C   UNL     1      -0.451  -0.726  -1.139  0.00  0.00    +0.120 A 
ATOM     10  N   UNL     1      -0.346  -2.046  -1.121  0.00  0.00    -0.222 NA
ATOM     11  C   UNL     1      -0.043  -2.691  -0.004  0.00  0.00    +0.220 A 
ATOM     12  N   UNL     1       0.165  -2.050   1.135  0.00  0.00    -0.214 NA
ATOM     13  C   UNL     1       0.082  -0.723   1.190  0.00  0.00    +0.080 A 
ATOM     14  N   UNL     1       0.057  -4.073  -0.030  0.00  0.00    -0.284 N 
ATOM     15  H   UNL     1       0.198  -4.564   0.795  0.00  0.00    +0.155 HD
BRANCH  14  16
ATOM     16  C   UNL     1      -0.045  -4.759  -1.244  0.00  0.00    +0.034 A 
ATOM     17  C   UNL     1       0.539  -4.236  -2.390  0.00  0.00    +0.023 A 
ATOM     18  C   UNL     1       0.437  -4.917  -3.587  0.00  0.00    +0.002 A 
ATOM     19  C   UNL     1      -0.245  -6.118  -3.646  0.00  0.00    +0.000 A 
ATOM     20  C   UNL     1      -0.828  -6.641  -2.506  0.00  0.00    +0.002 A 
ATOM     21  C   UNL     1      -0.725  -5.968  -1.304  0.00  0.00    +0.023 A 
ENDBRANCH  14  16
ENDBRANCH   1  13
BRANCH   3  22
ATOM     22  C   UNL     1       0.237   0.448   6.097  0.00  0.00    +0.261 C 
ATOM     23  O   UNL     1      -0.279  -0.521   6.621  0.00  0.00    -0.269 OA
ATOM     24  N   UNL     1       0.672   1.473   6.856  0.00  0.00    -0.301 N 
ATOM     25  H   UNL     1       1.083   2.246   6.439  0.00  0.00    +0.150 HD
BRANCH  24  26
ATOM     26  CA  UNL     1       0.523   1.420   8.313  0.00  0.00    +0.129 C 
BRANCH  26  27
ATOM     27  C   UNL     1       1.565   2.298   8.957  0.00  0.00    -0.022 A 
ATOM     28  C   UNL     1       1.877   3.524   8.398  0.00  0.00    +0.006 A 
ATOM     29  C   UNL     1       2.833   4.330   8.988  0.00  0.00    +0.003 A 
ATOM     30  C   UNL     1       3.478   3.911  10.136  0.00  0.00    +0.038 A 
ATOM     31  C   UNL     1       3.167   2.684  10.696  0.00  0.00    +0.124 A 
ATOM     32  C   UNL     1       2.205   1.880  10.108  0.00  0.00    +0.044 A 
ATOM     33  F   UNL     1       3.798   2.273  11.818  0.00  0.00    -0.205 F 
ENDBRANCH  26  27
BRANCH  26  34
ATOM     34  C   UNL     1      -0.871   1.916   8.701  0.00  0.00    +0.182 C 
BRANCH  34  35
ATOM     35  O   UNL     1      -0.999   3.297   8.358  0.00  0.00    -0.393 OA
ATOM     36  H   UNL     1      -1.860   3.679   8.577  0.00  0.00    +0.209 HD
ENDBRANCH  34  35
ENDBRANCH  26  34
ENDBRANCH  24  26
ENDBRANCH   3  22
TORSDOF 7
