REMARK  Name = CHEMBL550658
REMARK  3 active torsions:
REMARK  status: ('A' for Active; 'I' for Inactive)
REMARK    1  A    between atoms: C_7  and  C_11
REMARK    2  A    between atoms: C_12  and  C_18
REMARK    3  A    between atoms: C_21  and  C_24
REMARK                            x       y       z     vdW  Elec       q    Type
REMARK                         _______ _______ _______ _____ _____    ______ ____
ROOT
ATOM      1  C   UNL     1       0.700  -3.296   0.203  0.00  0.00    +0.086 A 
ATOM      2  C   UNL     1       1.189  -4.574  -0.135  0.00  0.00    +0.026 A 
ATOM      3  C   UNL     1       0.267  -5.597  -0.349  0.00  0.00    +0.125 A 
ATOM      4  N   UNL     1      -1.024  -5.337  -0.229  0.00  0.00    -0.222 NA
ATOM      5  C   UNL     1      -1.452  -4.123   0.090  0.00  0.00    +0.213 A 
ATOM      6  N   UNL     1      -0.616  -3.120   0.308  0.00  0.00    -0.214 NA
ATOM      7  N   UNL     1      -2.812  -3.900   0.204  0.00  0.00    -0.327 N 
ATOM      8  H   UNL     1      -3.438  -4.625   0.052  0.00  0.00    +0.145 HD
ATOM      9  H   UNL     1      -3.141  -3.017   0.437  0.00  0.00    +0.145 HD
ENDROOT
BRANCH   1  16
ATOM     10  C   UNL     1       0.830   1.123  -1.326  0.00  0.00    +0.001 A 
ATOM     11  C   UNL     1       1.915   1.829  -0.826  0.00  0.00    +0.002 A 
ATOM     12  C   UNL     1       2.814   1.224   0.025  0.00  0.00    +0.026 A 
ATOM     13  C   UNL     1       2.635  -0.107   0.387  0.00  0.00    +0.047 A 
ATOM     14  C   UNL     1       1.534  -0.816  -0.122  0.00  0.00    +0.009 A 
ATOM     15  C   UNL     1       0.636  -0.185  -0.982  0.00  0.00    +0.010 A 
ATOM     16  C   UNL     1       1.630  -2.173   0.441  0.00  0.00    +0.026 A 
ATOM     17  C   UNL     1       2.740  -2.191   1.224  0.00  0.00    +0.093 A 
ATOM     18  N   UNL     1       3.342  -0.970   1.197  0.00  0.00    -0.360 N 
ATOM     19  H   UNL     1       4.152  -0.740   1.679  0.00  0.00    +0.165 HD
ENDBRANCH   1  16
BRANCH   2  20
ATOM     20  C   UNL     1       2.645  -4.824  -0.260  0.00  0.00    -0.014 A 
ATOM     21  C   UNL     1       3.415  -4.050  -1.128  0.00  0.00    +0.009 A 
ATOM     22  C   UNL     1       4.770  -4.287  -1.240  0.00  0.00    +0.013 A 
ATOM     23  C   UNL     1       5.364  -5.289  -0.494  0.00  0.00    +0.055 A 
ATOM     24  C   UNL     1       4.605  -6.060   0.368  0.00  0.00    +0.013 A 
ATOM     25  C   UNL     1       3.250  -5.829   0.493  0.00  0.00    +0.009 A 
BRANCH  23  26
ATOM     26  C   UNL     1       6.844  -5.543  -0.622  0.00  0.00    +0.417 C 
ATOM     27  F   UNL     1       7.534  -4.760   0.311  0.00  0.00    -0.166 F 
ATOM     28  F   UNL     1       7.108  -6.895  -0.381  0.00  0.00    -0.166 F 
ATOM     29  F   UNL     1       7.265  -5.207  -1.913  0.00  0.00    -0.166 F 
ENDBRANCH  23  26
ENDBRANCH   2  20
TORSDOF 3
