REMARK  Name = CHEMBL375621
REMARK  3 active torsions:
REMARK  status: ('A' for Active; 'I' for Inactive)
REMARK    1  A    between atoms: C_11  and  C_13
REMARK    2  A    between atoms: C_15  and  C_19
REMARK    3  A    between atoms: C_20  and  C_25
REMARK                            x       y       z     vdW  Elec       q    Type
REMARK                         _______ _______ _______ _____ _____    ______ ____
ROOT
ATOM      1  C   UNL     1       5.607  -2.127   1.540  0.00  0.00    +0.103 A 
ATOM      2  C   UNL     1       6.597  -2.695   2.290  0.00  0.00    +0.042 A 
ATOM      3  C   UNL     1       7.432  -1.649   2.736  0.00  0.00    +0.018 A 
ATOM      4  C   UNL     1       6.914  -0.473   2.237  0.00  0.00    +0.093 A 
ATOM      5  N   UNL     1       5.816  -0.766   1.511  0.00  0.00    -0.356 N 
ATOM      6  H   UNL     1       5.261  -0.122   1.045  0.00  0.00    +0.165 HD
ENDROOT
BRANCH   1  17
ATOM      7  C   UNL     1      -0.797  -0.073   2.207  0.00  0.00    +0.000 A 
ATOM      8  C   UNL     1       0.184   0.887   2.376  0.00  0.00    +0.000 A 
ATOM      9  C   UNL     1       1.467   0.639   1.934  0.00  0.00    +0.005 A 
ATOM     10  C   UNL     1       1.782  -0.568   1.325  0.00  0.00    -0.027 A 
ATOM     11  C   UNL     1       0.809  -1.529   1.164  0.00  0.00    -0.041 A 
ATOM     12  C   UNL     1      -0.485  -1.273   1.603  0.00  0.00    +0.004 A 
ATOM     13  C   UNL     1       1.082  -2.872   0.540  0.00  0.00    +0.054 C 
ATOM     14  C   UNL     1       2.354  -2.832  -0.303  0.00  0.00    +0.113 C 
ATOM     15  N   UNL     1       3.405  -2.176   0.493  0.00  0.00    -0.292 N 
ATOM     16  C   UNL     1       3.200  -0.769   0.852  0.00  0.00    +0.143 C 
ATOM     17  C   UNL     1       4.513  -2.843   0.876  0.00  0.00    +0.263 C 
ATOM     18  O   UNL     1       4.604  -4.039   0.670  0.00  0.00    -0.268 OA
ENDBRANCH   1  17
BRANCH   3  19
ATOM     19  C   UNL     1       8.637  -1.789   3.581  0.00  0.00    +0.075 A 
ATOM     20  C   UNL     1       8.752  -2.550   4.737  0.00  0.00    +0.027 A 
ATOM     21  C   UNL     1      10.066  -2.392   5.212  0.00  0.00    +0.143 A 
ATOM     22  N   UNL     1      10.707  -1.591   4.403  0.00  0.00    -0.181 NA
ATOM     23  N   UNL     1       9.847  -1.199   3.371  0.00  0.00    -0.276 N 
ATOM     24  H   UNL     1      10.072  -0.609   2.635  0.00  0.00    +0.189 HD
BRANCH  20  25
ATOM     25  C   UNL     1       7.687  -3.375   5.355  0.00  0.00    -0.013 A 
ATOM     26  C   UNL     1       6.462  -2.800   5.691  0.00  0.00    +0.009 A 
ATOM     27  C   UNL     1       5.474  -3.572   6.266  0.00  0.00    +0.002 A 
ATOM     28  C   UNL     1       5.696  -4.916   6.509  0.00  0.00    +0.020 A 
ATOM     29  C   UNL     1       6.910  -5.493   6.178  0.00  0.00    +0.042 A 
ATOM     30  C   UNL     1       7.904  -4.730   5.597  0.00  0.00    +0.028 A 
ATOM     31 CL   UNL     1       7.181  -7.179   6.488  0.00  0.00    -0.084 Cl
ENDBRANCH  20  25
ENDBRANCH   3  19
TORSDOF 3
