REMARK  Name = CHEMBL576048
REMARK  8 active torsions:
REMARK  status: ('A' for Active; 'I' for Inactive)
REMARK    1  A    between atoms: C_1  and  C_2
REMARK    2  A    between atoms: C_7  and  C_8
REMARK    3  A    between atoms: CA_10  and  C_14
REMARK    4  A    between atoms: N_16  and  CA_17
REMARK    5  A    between atoms: CA_17  and  C_19
REMARK    6  A    between atoms: CA_17  and  C_21
REMARK    7  A    between atoms: C_19  and  O_20
REMARK    8  A    between atoms: N_28  and  C_29
REMARK                            x       y       z     vdW  Elec       q    Type
REMARK                         _______ _______ _______ _____ _____    ______ ____
ROOT
ATOM      1  C   UNL     1       0.640  -0.030   2.450  0.00  0.00    +0.019 A 
ATOM      2  C   UNL     1       0.191  -0.431   3.724  0.00  0.00    +0.042 A 
ATOM      3  CA  UNL     1       0.644   0.495   4.619  0.00  0.00    +0.102 A 
ATOM      4  N   UNL     1       1.356   1.450   3.927  0.00  0.00    -0.356 N 
ATOM      5  H   UNL     1       1.788   2.224   4.320  0.00  0.00    +0.165 HD
ATOM      6  C   UNL     1       1.360   1.133   2.619  0.00  0.00    +0.093 A 
ENDROOT
BRANCH   1  13
ATOM      7  C   UNL     1       0.268   1.500  -0.012  0.00  0.00    +0.047 C 
ATOM      8  C   UNL     1       0.212  -0.006  -0.014  0.00  0.00    -0.006 A 
ATOM      9  C   UNL     1      -0.013  -0.704  -1.187  0.00  0.00    +0.120 A 
ATOM     10  N   UNL     1      -0.057  -2.027  -1.155  0.00  0.00    -0.222 NA
ATOM     11  C   UNL     1       0.112  -2.689  -0.019  0.00  0.00    +0.220 A 
ATOM     12  N   UNL     1       0.329  -2.060   1.126  0.00  0.00    -0.214 NA
ATOM     13  C   UNL     1       0.391  -0.731   1.168  0.00  0.00    +0.080 A 
ATOM     14  N   UNL     1       0.059  -4.073  -0.030  0.00  0.00    -0.281 N 
ATOM     15  H   UNL     1       0.092  -4.566   0.805  0.00  0.00    +0.155 HD
BRANCH  14  16
ATOM     16  C   UNL     1      -0.043  -4.760  -1.245  0.00  0.00    +0.069 A 
ATOM     17  C   UNL     1       0.535  -4.234  -2.392  0.00  0.00    +0.027 A 
ATOM     18  C   UNL     1       0.433  -4.914  -3.591  0.00  0.00    +0.022 A 
ATOM     19  C   UNL     1      -0.245  -6.118  -3.649  0.00  0.00    +0.044 A 
ATOM     20  C   UNL     1      -0.823  -6.647  -2.509  0.00  0.00    +0.060 A 
ATOM     21  C   UNL     1      -0.719  -5.974  -1.305  0.00  0.00    +0.146 A 
ATOM     22  F   UNL     1      -1.279  -6.492  -0.190  0.00  0.00    -0.203 F 
ATOM     23 CL   UNL     1      -0.371  -6.968  -5.158  0.00  0.00    -0.083 Cl
ENDBRANCH  14  16
ENDBRANCH   1  13
BRANCH   3  24
ATOM     24  C   UNL     1       0.411   0.477   6.068  0.00  0.00    +0.261 C 
ATOM     25  O   UNL     1      -0.237  -0.422   6.569  0.00  0.00    -0.269 OA
ATOM     26  N   UNL     1       0.916   1.457   6.844  0.00  0.00    -0.301 N 
ATOM     27  H   UNL     1       1.433   2.174   6.444  0.00  0.00    +0.150 HD
BRANCH  26  28
ATOM     28  CA  UNL     1       0.684   1.439   8.290  0.00  0.00    +0.129 C 
BRANCH  28  29
ATOM     29  C   UNL     1       1.782   2.204   8.984  0.00  0.00    -0.024 A 
ATOM     30  C   UNL     1       2.258   3.380   8.436  0.00  0.00    +0.005 A 
ATOM     31  C   UNL     1       3.265   4.082   9.072  0.00  0.00    +0.002 A 
ATOM     32  C   UNL     1       3.796   3.607  10.257  0.00  0.00    +0.020 A 
ATOM     33  C   UNL     1       3.320   2.430  10.806  0.00  0.00    +0.041 A 
ATOM     34  C   UNL     1       2.308   1.731  10.172  0.00  0.00    +0.025 A 
ATOM     35 CL   UNL     1       3.987   1.834  12.294  0.00  0.00    -0.084 Cl
ENDBRANCH  28  29
BRANCH  28  36
ATOM     36  C   UNL     1      -0.665   2.091   8.598  0.00  0.00    +0.182 C 
BRANCH  36  37
ATOM     37  O   UNL     1      -0.619   3.474   8.240  0.00  0.00    -0.393 OA
ATOM     38  H   UNL     1      -1.443   3.951   8.408  0.00  0.00    +0.209 HD
ENDBRANCH  36  37
ENDBRANCH  28  36
ENDBRANCH  26  28
ENDBRANCH   3  24
TORSDOF 7
