REMARK  Name = CHEMBL78779
REMARK  7 active torsions:
REMARK  status: ('A' for Active; 'I' for Inactive)
REMARK    1  A    between atoms: C_1  and  C_2
REMARK    2  A    between atoms: C_6  and  O_21
REMARK    3  A    between atoms: C_12  and  C_13
REMARK    4  A    between atoms: C_13  and  C_14
REMARK    5  A    between atoms: O_21  and  C_22
REMARK    6  A    between atoms: N_24  and  C_25
REMARK    7  A    between atoms: N_24  and  C_26
REMARK                            x       y       z     vdW  Elec       q    Type
REMARK                         _______ _______ _______ _____ _____    ______ ____
ROOT
ATOM      1  C   UNL     1      -0.095   1.409  -0.381  0.00  0.00    +0.045 C 
ATOM      2  C   UNL     1       0.159  -0.075  -0.330  0.00  0.00    -0.030 A 
ATOM      3  C   UNL     1       0.195  -0.875  -1.557  0.00  0.00    +0.021 A 
ATOM      4  C   UNL     1      -0.004  -0.282  -2.809  0.00  0.00    +0.015 A 
ATOM      5  C   UNL     1       0.036  -1.050  -3.937  0.00  0.00    +0.047 A 
ATOM      6  C   UNL     1       0.273  -2.420  -3.850  0.00  0.00    +0.137 A 
ATOM      7  C   UNL     1       0.471  -3.023  -2.619  0.00  0.00    +0.093 A 
ATOM      8  C   UNL     1       0.435  -2.258  -1.463  0.00  0.00    +0.143 A 
ATOM      9  O   UNL     1       0.627  -2.826  -0.253  0.00  0.00    -0.422 OA
ATOM     10  C   UNL     1       0.596  -2.099   0.875  0.00  0.00    +0.341 A 
ATOM     11  O   UNL     1       0.775  -2.655   1.944  0.00  0.00    -0.245 OA
ATOM     12  C   UNL     1       0.365  -0.708   0.854  0.00  0.00    +0.045 A 
ENDROOT
BRANCH  12  13
ATOM     13  C   UNL     1       0.343   0.074   2.142  0.00  0.00    +0.077 C 
BRANCH  13  14
ATOM     14  C   UNL     1       1.750   0.457   2.521  0.00  0.00    -0.043 A 
ATOM     15  C   UNL     1       2.483  -0.355   3.366  0.00  0.00    +0.007 A 
ATOM     16  C   UNL     1       3.774  -0.005   3.714  0.00  0.00    +0.038 A 
ATOM     17  C   UNL     1       4.332   1.160   3.216  0.00  0.00    +0.123 A 
ATOM     18  C   UNL     1       3.597   1.973   2.371  0.00  0.00    +0.038 A 
ATOM     19  C   UNL     1       2.308   1.618   2.020  0.00  0.00    +0.007 A 
ATOM     20  F   UNL     1       5.594   1.504   3.556  0.00  0.00    -0.205 F 
ENDBRANCH  13  14
ENDBRANCH  12  13
BRANCH   6  21
ATOM     21  O   UNL     1       0.309  -3.170  -4.981  0.00  0.00    -0.411 OA
BRANCH  21  22
ATOM     22  C   UNL     1       1.409  -3.093  -5.756  0.00  0.00    +0.408 C 
ATOM     23  O   UNL     1       2.368  -2.446  -5.387  0.00  0.00    -0.226 OA
ATOM     24  N   UNL     1       1.444  -3.734  -6.941  0.00  0.00    -0.273 N 
ATOM     25  C   UNL     1       2.640  -3.651  -7.784  0.00  0.00    +0.135 C 
ATOM     26  C   UNL     1       0.287  -4.515  -7.386  0.00  0.00    +0.135 C 
ENDBRANCH  21  22
ENDBRANCH   6  21
TORSDOF 4
