REMARK  Name = CHEMBL220272
REMARK  6 active torsions:
REMARK  status: ('A' for Active; 'I' for Inactive)
REMARK    1  A    between atoms: C_4  and  C_7
REMARK    2  A    between atoms: C_7  and  O_8
REMARK    3  A    between atoms: O_8  and  N_9
REMARK    4  A    between atoms: C_10  and  C_12
REMARK    5  A    between atoms: C_14  and  C_18
REMARK    6  A    between atoms: C_19  and  C_24
REMARK                            x       y       z     vdW  Elec       q    Type
REMARK                         _______ _______ _______ _____ _____    ______ ____
ROOT
ATOM      1  C   UNL     1       6.712  -2.889   3.308  0.00  0.00    +0.104 A 
ATOM      2  C   UNL     1       7.562  -3.143   4.346  0.00  0.00    +0.042 A 
ATOM      3  C   UNL     1       8.678  -3.821   3.811  0.00  0.00    +0.018 A 
ATOM      4  C   UNL     1       8.462  -3.955   2.456  0.00  0.00    +0.093 A 
ATOM      5  N   UNL     1       7.272  -3.397   2.157  0.00  0.00    -0.356 N 
ATOM      6  H   UNL     1       6.875  -3.357   1.273  0.00  0.00    +0.165 HD
ENDROOT
BRANCH   3   7
ATOM      7  C   UNL     1       9.858  -4.298   4.563  0.00  0.00    +0.075 A 
ATOM      8  C   UNL     1      10.578  -3.583   5.511  0.00  0.00    +0.027 A 
ATOM      9  C   UNL     1      11.612  -4.419   5.968  0.00  0.00    +0.143 A 
ATOM     10  N   UNL     1      11.528  -5.563   5.343  0.00  0.00    -0.181 NA
ATOM     11  N   UNL     1      10.441  -5.524   4.462  0.00  0.00    -0.276 N 
ATOM     12  H   UNL     1      10.155  -6.245   3.880  0.00  0.00    +0.189 HD
BRANCH   8  13
ATOM     13  C   UNL     1      10.307  -2.195   5.957  0.00  0.00    -0.013 A 
ATOM     14  C   UNL     1      10.240  -1.161   5.024  0.00  0.00    +0.009 A 
ATOM     15  C   UNL     1       9.987   0.129   5.445  0.00  0.00    +0.002 A 
ATOM     16  C   UNL     1       9.800   0.397   6.789  0.00  0.00    +0.020 A 
ATOM     17  C   UNL     1       9.865  -0.625   7.720  0.00  0.00    +0.042 A 
ATOM     18  C   UNL     1      10.112  -1.921   7.309  0.00  0.00    +0.028 A 
ATOM     19 CL   UNL     1       9.630  -0.280   9.405  0.00  0.00    -0.084 Cl
ENDBRANCH   8  13
ENDBRANCH   3   7
BRANCH   1  21
ATOM     20  N   UNL     1       4.670  -2.017   2.299  0.00  0.00    -0.189 N 
ATOM     21  C   UNL     1       5.420  -2.200   3.404  0.00  0.00    +0.283 C 
ATOM     22  O   UNL     1       5.026  -1.793   4.481  0.00  0.00    -0.266 OA
ATOM     23  H   UNL     1       4.984  -2.341   1.440  0.00  0.00    +0.183 HD
BRANCH  20  24
ATOM     24  O   UNL     1       3.424  -1.352   2.391  0.00  0.00    -0.275 OA
BRANCH  24  25
ATOM     25  C   UNL     1       2.736  -1.228   1.144  0.00  0.00    +0.225 C 
BRANCH  25  29
ATOM     26  C   UNL     1      -0.967   0.811   1.752  0.00  0.00    +0.000 A 
ATOM     27  C   UNL     1       0.177   1.529   1.458  0.00  0.00    +0.000 A 
ATOM     28  C   UNL     1       1.376   0.869   1.262  0.00  0.00    +0.006 A 
ATOM     29  C   UNL     1       1.430  -0.509   1.359  0.00  0.00    -0.020 A 
ATOM     30  C   UNL     1       0.286  -1.226   1.654  0.00  0.00    +0.006 A 
ATOM     31  C   UNL     1      -0.913  -0.567   1.849  0.00  0.00    +0.000 A 
ENDBRANCH  25  29
ENDBRANCH  24  25
ENDBRANCH  20  24
ENDBRANCH   1  21
TORSDOF 6
