REMARK  Name = CHEMBL570111
REMARK  8 active torsions:
REMARK  status: ('A' for Active; 'I' for Inactive)
REMARK    1  A    between atoms: C_1  and  C_2
REMARK    2  A    between atoms: C_7  and  C_8
REMARK    3  A    between atoms: CA_10  and  C_14
REMARK    4  A    between atoms: N_16  and  CA_17
REMARK    5  A    between atoms: CA_17  and  C_19
REMARK    6  A    between atoms: CA_17  and  C_21
REMARK    7  A    between atoms: C_19  and  O_20
REMARK    8  A    between atoms: N_28  and  C_29
REMARK                            x       y       z     vdW  Elec       q    Type
REMARK                         _______ _______ _______ _____ _____    ______ ____
ROOT
ATOM      1  C   UNL     1       0.545  -0.019   2.452  0.00  0.00    +0.019 A 
ATOM      2  C   UNL     1       0.131  -0.439   3.733  0.00  0.00    +0.042 A 
ATOM      3  CA  UNL     1       0.567   0.500   4.623  0.00  0.00    +0.102 A 
ATOM      4  N   UNL     1       1.234   1.480   3.922  0.00  0.00    -0.356 N 
ATOM      5  H   UNL     1       1.647   2.267   4.311  0.00  0.00    +0.165 HD
ATOM      6  C   UNL     1       1.227   1.167   2.613  0.00  0.00    +0.093 A 
ENDROOT
BRANCH   1  13
ATOM      7  C   UNL     1       0.080   1.503   0.002  0.00  0.00    +0.047 C 
ATOM      8  C   UNL     1       0.074  -0.004  -0.004  0.00  0.00    -0.006 A 
ATOM      9  C   UNL     1      -0.146  -0.706  -1.175  0.00  0.00    +0.120 A 
ATOM     10  N   UNL     1      -0.145  -2.029  -1.147  0.00  0.00    -0.222 NA
ATOM     11  C   UNL     1       0.064  -2.688  -0.015  0.00  0.00    +0.220 A 
ATOM     12  N   UNL     1       0.279  -2.055   1.127  0.00  0.00    -0.214 NA
ATOM     13  C   UNL     1       0.297  -0.725   1.173  0.00  0.00    +0.080 A 
ATOM     14  N   UNL     1       0.057  -4.073  -0.030  0.00  0.00    -0.283 N 
ATOM     15  H   UNL     1       0.123  -4.567   0.803  0.00  0.00    +0.155 HD
BRANCH  14  16
ATOM     16  C   UNL     1      -0.045  -4.759  -1.244  0.00  0.00    +0.037 A 
ATOM     17  C   UNL     1       0.535  -4.229  -2.386  0.00  0.00    +0.023 A 
ATOM     18  C   UNL     1       0.432  -4.908  -3.583  0.00  0.00    +0.002 A 
ATOM     19  C   UNL     1      -0.249  -6.107  -3.637  0.00  0.00    +0.004 A 
ATOM     20  C   UNL     1      -0.833  -6.643  -2.496  0.00  0.00    -0.042 A 
ATOM     21  C   UNL     1      -0.725  -5.976  -1.297  0.00  0.00    -0.023 A 
ATOM     22  C   UNL     1      -1.314  -6.508  -0.017  0.00  0.00    +0.037 C 
ATOM     23  C   UNL     1      -2.360  -7.581  -0.312  0.00  0.00    +0.005 C 
ATOM     24  C   UNL     1      -1.742  -8.612  -1.262  0.00  0.00    +0.005 C 
ATOM     25  C   UNL     1      -1.567  -7.951  -2.632  0.00  0.00    +0.035 C 
ENDBRANCH  14  16
ENDBRANCH   1  13
BRANCH   3  26
ATOM     26  C   UNL     1       0.359   0.471   6.075  0.00  0.00    +0.261 C 
ATOM     27  O   UNL     1      -0.250  -0.451   6.584  0.00  0.00    -0.269 OA
ATOM     28  N   UNL     1       0.843   1.465   6.846  0.00  0.00    -0.301 N 
ATOM     29  H   UNL     1       1.329   2.200   6.440  0.00  0.00    +0.150 HD
BRANCH  28  30
ATOM     30  CA  UNL     1       0.636   1.436   8.295  0.00  0.00    +0.129 C 
BRANCH  30  31
ATOM     31  C   UNL     1       1.719   2.235   8.974  0.00  0.00    -0.024 A 
ATOM     32  C   UNL     1       2.146   3.429   8.422  0.00  0.00    +0.005 A 
ATOM     33  C   UNL     1       3.139   4.162   9.043  0.00  0.00    +0.002 A 
ATOM     34  C   UNL     1       3.705   3.703  10.218  0.00  0.00    +0.020 A 
ATOM     35  C   UNL     1       3.278   2.509  10.771  0.00  0.00    +0.041 A 
ATOM     36  C   UNL     1       2.280   1.778  10.151  0.00  0.00    +0.025 A 
ATOM     37 CL   UNL     1       3.990   1.931  12.245  0.00  0.00    -0.084 Cl
ENDBRANCH  30  31
BRANCH  30  38
ATOM     38  C   UNL     1      -0.729   2.041   8.628  0.00  0.00    +0.182 C 
BRANCH  38  39
ATOM     39  O   UNL     1      -0.736   3.426   8.273  0.00  0.00    -0.393 OA
ATOM     40  H   UNL     1      -1.572   3.875   8.456  0.00  0.00    +0.209 HD
ENDBRANCH  38  39
ENDBRANCH  30  38
ENDBRANCH  28  30
ENDBRANCH   3  26
TORSDOF 7
