REMARK  Name = CHEMBL375621
REMARK  3 active torsions:
REMARK  status: ('A' for Active; 'I' for Inactive)
REMARK    1  A    between atoms: C_11  and  C_13
REMARK    2  A    between atoms: C_15  and  C_19
REMARK    3  A    between atoms: C_20  and  C_25
REMARK                            x       y       z     vdW  Elec       q    Type
REMARK                         _______ _______ _______ _____ _____    ______ ____
ROOT
ATOM      1  C   UNL     1       5.546  -2.074   1.629  0.00  0.00    +0.103 A 
ATOM      2  C   UNL     1       6.511  -2.643   2.411  0.00  0.00    +0.042 A 
ATOM      3  C   UNL     1       7.422  -1.623   2.749  0.00  0.00    +0.021 A 
ATOM      4  C   UNL     1       6.982  -0.470   2.164  0.00  0.00    +0.093 A 
ATOM      5  N   UNL     1       5.851  -0.740   1.480  0.00  0.00    -0.356 N 
ATOM      6  H   UNL     1       5.334  -0.097   0.970  0.00  0.00    +0.165 HD
ENDROOT
BRANCH   1  17
ATOM      7  C   UNL     1      -0.681   0.492   2.187  0.00  0.00    +0.000 A 
ATOM      8  C   UNL     1       0.369   1.389   2.257  0.00  0.00    +0.000 A 
ATOM      9  C   UNL     1       1.623   1.010   1.823  0.00  0.00    +0.005 A 
ATOM     10  C   UNL     1       1.838  -0.266   1.321  0.00  0.00    -0.027 A 
ATOM     11  C   UNL     1       0.796  -1.164   1.260  0.00  0.00    -0.041 A 
ATOM     12  C   UNL     1      -0.467  -0.777   1.690  0.00  0.00    +0.004 A 
ATOM     13  C   UNL     1       0.961  -2.574   0.757  0.00  0.00    +0.054 C 
ATOM     14  C   UNL     1       2.217  -2.701  -0.104  0.00  0.00    +0.113 C 
ATOM     15  N   UNL     1       3.327  -2.056   0.617  0.00  0.00    -0.292 N 
ATOM     16  C   UNL     1       3.229  -0.611   0.850  0.00  0.00    +0.143 C 
ATOM     17  C   UNL     1       4.391  -2.765   1.044  0.00  0.00    +0.263 C 
ATOM     18  O   UNL     1       4.393  -3.978   0.946  0.00  0.00    -0.268 OA
ENDBRANCH   1  17
BRANCH   3  19
ATOM     19  C   UNL     1       8.637  -1.774   3.589  0.00  0.00    +0.102 A 
ATOM     20  C   UNL     1       9.861  -1.080   3.419  0.00  0.00    +0.027 A 
ATOM     21  C   UNL     1      10.712  -1.506   4.394  0.00  0.00    +0.114 A 
ATOM     22  N   UNL     1      10.060  -2.421   5.140  0.00  0.00    -0.284 N 
ATOM     23  N   UNL     1       8.767  -2.571   4.626  0.00  0.00    -0.173 NA
ATOM     24  H   UNL     1      10.425  -2.893   5.905  0.00  0.00    +0.188 HD
BRANCH  20  25
ATOM     25  C   UNL     1      10.160  -0.074   2.370  0.00  0.00    -0.013 A 
ATOM     26  C   UNL     1       9.884  -0.354   1.033  0.00  0.00    +0.009 A 
ATOM     27  C   UNL     1      10.164   0.586   0.062  0.00  0.00    +0.002 A 
ATOM     28  C   UNL     1      10.719   1.803   0.412  0.00  0.00    +0.020 A 
ATOM     29  C   UNL     1      10.996   2.087   1.739  0.00  0.00    +0.042 A 
ATOM     30  C   UNL     1      10.713   1.156   2.720  0.00  0.00    +0.028 A 
ATOM     31 CL   UNL     1      11.693   3.617   2.170  0.00  0.00    -0.084 Cl
ENDBRANCH  20  25
ENDBRANCH   3  19
TORSDOF 3
