REMARK  Name = CHEMBL373628
REMARK  6 active torsions:
REMARK  status: ('A' for Active; 'I' for Inactive)
REMARK    1  A    between atoms: C_1  and  C_2
REMARK    2  A    between atoms: C_2  and  C_4
REMARK    3  A    between atoms: C_2  and  N_10
REMARK    4  A    between atoms: C_11  and  C_13
REMARK    5  A    between atoms: C_15  and  C_19
REMARK    6  A    between atoms: C_20  and  C_25
REMARK                            x       y       z     vdW  Elec       q    Type
REMARK                         _______ _______ _______ _____ _____    ______ ____
ROOT
ATOM      1  C   UNL     1       0.155  -0.542  -3.794  0.00  0.00    +0.102 A 
ATOM      2  C   UNL     1      -0.286  -0.954  -5.020  0.00  0.00    +0.042 A 
ATOM      3  C   UNL     1       0.848  -1.364  -5.752  0.00  0.00    +0.018 A 
ATOM      4  C   UNL     1       1.946  -1.185  -4.938  0.00  0.00    +0.093 A 
ATOM      5  N   UNL     1       1.524  -0.683  -3.760  0.00  0.00    -0.356 N 
ATOM      6  H   UNL     1       2.094  -0.460  -3.007  0.00  0.00    +0.165 HD
ENDROOT
BRANCH   3   7
ATOM      7  C   UNL     1       0.857  -1.888  -7.135  0.00  0.00    +0.075 A 
ATOM      8  C   UNL     1       0.005  -2.850  -7.658  0.00  0.00    +0.027 A 
ATOM      9  C   UNL     1       0.368  -3.042  -9.004  0.00  0.00    +0.143 A 
ATOM     10  N   UNL     1       1.371  -2.253  -9.280  0.00  0.00    -0.181 NA
ATOM     11  N   UNL     1       1.699  -1.514  -8.137  0.00  0.00    -0.276 N 
ATOM     12  H   UNL     1       2.405  -0.851  -8.071  0.00  0.00    +0.189 HD
BRANCH   8  13
ATOM     13  C   UNL     1      -1.086  -3.546  -6.934  0.00  0.00    -0.013 A 
ATOM     14  C   UNL     1      -0.814  -4.232  -5.751  0.00  0.00    +0.009 A 
ATOM     15  C   UNL     1      -1.833  -4.878  -5.081  0.00  0.00    +0.002 A 
ATOM     16  C   UNL     1      -3.122  -4.846  -5.580  0.00  0.00    +0.020 A 
ATOM     17  C   UNL     1      -3.399  -4.167  -6.754  0.00  0.00    +0.042 A 
ATOM     18  C   UNL     1      -2.388  -3.512  -7.431  0.00  0.00    +0.028 A 
ATOM     19 CL   UNL     1      -5.020  -4.133  -7.375  0.00  0.00    -0.084 Cl
ENDBRANCH   8  13
ENDBRANCH   3   7
BRANCH   1  21
ATOM     20  N   UNL     1      -0.121   0.348  -1.541  0.00  0.00    -0.304 N 
ATOM     21  C   UNL     1      -0.685  -0.032  -2.705  0.00  0.00    +0.261 C 
ATOM     22  O   UNL     1      -1.890   0.048  -2.852  0.00  0.00    -0.269 OA
ATOM     23  H   UNL     1       0.839   0.285  -1.424  0.00  0.00    +0.150 HD
BRANCH  20  25
ATOM     24  C   UNL     1      -1.203   2.355  -0.655  0.00  0.00    +0.033 C 
ATOM     25  C   UNL     1      -0.960   0.858  -0.453  0.00  0.00    +0.100 C 
BRANCH  25  26
ATOM     26  C   UNL     1      -0.264   0.636   0.864  0.00  0.00    -0.027 A 
ATOM     27  C   UNL     1       1.099   0.842   0.969  0.00  0.00    +0.005 A 
ATOM     28  C   UNL     1       1.738   0.638   2.178  0.00  0.00    +0.000 A 
ATOM     29  C   UNL     1       1.014   0.229   3.282  0.00  0.00    +0.000 A 
ATOM     30  C   UNL     1      -0.349   0.024   3.178  0.00  0.00    +0.000 A 
ATOM     31  C   UNL     1      -0.988   0.232   1.970  0.00  0.00    +0.005 A 
ENDBRANCH  25  26
ENDBRANCH  20  25
ENDBRANCH   1  21
TORSDOF 5
