REMARK  Name = CHEMBL414139
REMARK  12 active torsions:
REMARK  status: ('A' for Active; 'I' for Inactive)
REMARK    1  A    between atoms: C_1  and  O_2
REMARK    2  A    between atoms: O_2  and  C_3
REMARK    3  A    between atoms: C_8  and  O_9
REMARK    4  A    between atoms: O_9  and  C_10
REMARK    5  A    between atoms: C_10  and  C_11
REMARK    6  A    between atoms: C_11  and  C_12
REMARK    7  A    between atoms: C_12  and  N_13
REMARK    8  A    between atoms: C_21  and  C_37
REMARK    9  A    between atoms: C_22  and  N_23
REMARK   10  A    between atoms: N_23  and  C_24
REMARK   11  A    between atoms: C_27  and  O_30
REMARK   12  A    between atoms: O_30  and  C_31
REMARK                            x       y       z     vdW  Elec       q    Type
REMARK                         _______ _______ _______ _____ _____    ______ ____
ROOT
ATOM      1  C   UNL     1      -3.882  -1.082  -0.466  0.00  0.00    +0.162 A 
ATOM      2  C   UNL     1      -4.471  -0.100   0.278  0.00  0.00    +0.061 A 
ATOM      3  C   UNL     1      -5.251  -0.441   1.392  0.00  0.00    +0.026 A 
ATOM      4  C   UNL     1      -5.426  -1.801   1.743  0.00  0.00    +0.077 A 
ATOM      5  C   UNL     1      -4.811  -2.793   0.964  0.00  0.00    +0.077 A 
ATOM      6  C   UNL     1      -4.055  -2.432  -0.129  0.00  0.00    +0.164 A 
ATOM      7  N   UNL     1      -6.171  -2.134   2.807  0.00  0.00    -0.253 NA
ATOM      8  C   UNL     1      -6.757  -1.233   3.553  0.00  0.00    +0.132 A 
ATOM      9  C   UNL     1      -6.639   0.139   3.279  0.00  0.00    +0.091 A 
ATOM     10  C   UNL     1      -5.872   0.556   2.180  0.00  0.00    +0.060 A 
ENDROOT
BRANCH   1  12
ATOM     11  C   UNL     1      -2.989   0.644  -1.836  0.00  0.00    +0.277 C 
ATOM     12  O   UNL     1      -3.127  -0.749  -1.546  0.00  0.00    -0.491 OA
ENDBRANCH   1  12
BRANCH  10  13
ATOM     13  N   UNL     1      -5.730   1.895   1.877  0.00  0.00    -0.313 N 
ATOM     14  H   UNL     1      -5.004   2.407   2.268  0.00  0.00    +0.152 HD
BRANCH  13  15
ATOM     15  C   UNL     1      -6.632   2.515   1.006  0.00  0.00    +0.032 A 
ATOM     16  C   UNL     1      -7.615   1.765   0.373  0.00  0.00    +0.027 A 
ATOM     17  C   UNL     1      -8.505   2.377  -0.486  0.00  0.00    +0.048 A 
ATOM     18  C   UNL     1      -8.418   3.743  -0.718  0.00  0.00    +0.129 A 
ATOM     19  C   UNL     1      -7.437   4.493  -0.086  0.00  0.00    +0.048 A 
ATOM     20  C   UNL     1      -6.550   3.883   0.778  0.00  0.00    +0.027 A 
BRANCH  18  21
ATOM     21  O   UNL     1      -9.295   4.345  -1.564  0.00  0.00    -0.456 OA
BRANCH  21  22
ATOM     22  C   UNL     1      -9.182   5.686  -1.751  0.00  0.00    +0.128 A 
ATOM     23  C   UNL     1      -8.371   6.181  -2.763  0.00  0.00    +0.046 A 
ATOM     24  C   UNL     1      -8.259   7.545  -2.951  0.00  0.00    +0.004 A 
ATOM     25  C   UNL     1      -8.953   8.417  -2.132  0.00  0.00    +0.000 A 
ATOM     26  C   UNL     1      -9.762   7.926  -1.124  0.00  0.00    +0.004 A 
ATOM     27  C   UNL     1      -9.883   6.563  -0.935  0.00  0.00    +0.046 A 
ENDBRANCH  21  22
ENDBRANCH  18  21
ENDBRANCH  13  15
ENDBRANCH  10  13
BRANCH   9  28
ATOM     28  C   UNL     1      -7.293   1.103   4.112  0.00  0.00    +0.103 C 
ATOM     29  N   UNL     1      -7.812   1.867   4.773  0.00  0.00    -0.191 NA
ENDBRANCH   9  28
BRANCH   6  30
ATOM     30  O   UNL     1      -3.466  -3.394  -0.886  0.00  0.00    -0.488 OA
BRANCH  30  31
ATOM     31  C   UNL     1      -3.679  -4.751  -0.492  0.00  0.00    +0.230 C 
BRANCH  31  32
ATOM     32  C   UNL     1      -2.943  -5.684  -1.456  0.00  0.00    +0.056 C 
BRANCH  32  33
ATOM     33  C   UNL     1      -3.171  -7.136  -1.034  0.00  0.00    +0.088 C 
BRANCH  33  34
ATOM     34  N   UNL     1      -2.465  -8.032  -1.959  0.00  0.00    -0.298 NA
ATOM     35  C   UNL     1      -3.053  -7.969  -3.305  0.00  0.00    +0.112 C 
ATOM     36  C   UNL     1      -2.251  -8.870  -4.249  0.00  0.00    +0.175 C 
ATOM     37  O   UNL     1      -2.233 -10.201  -3.728  0.00  0.00    -0.377 OA
ATOM     38  C   UNL     1      -1.666 -10.299  -2.419  0.00  0.00    +0.175 C 
ATOM     39  C   UNL     1      -2.462  -9.413  -1.456  0.00  0.00    +0.112 C 
ENDBRANCH  33  34
ENDBRANCH  32  33
ENDBRANCH  31  32
ENDBRANCH  30  31
ENDBRANCH   6  30
TORSDOF 11
