REMARK  Name = CHEMBL99203
REMARK  5 active torsions:
REMARK  status: ('A' for Active; 'I' for Inactive)
REMARK    1  A    between atoms: N_9  and  C1*_10
REMARK    2  A    between atoms: C2*_12  and  O2*_22
REMARK    3  A    between atoms: C3*_14  and  O3*_21
REMARK    4  A    between atoms: C4*_16  and  C5*_19
REMARK    5  A    between atoms: C5*_19  and  O5*_20
REMARK                            x       y       z     vdW  Elec       q    Type
REMARK                         _______ _______ _______ _____ _____    ______ ____
ROOT
ATOM      1  C   UNL     1      -0.017   1.367   0.010  0.00  0.00    +0.105 A 
ATOM      2  C   UNL     1       1.241   1.839   0.000  0.00  0.00    +0.044 A 
ATOM      3  C   UNL     1       2.128   0.677  -0.015  0.00  0.00    +0.071 A 
ATOM      4  C   UNL     1       3.519   0.488  -0.029  0.00  0.00    +0.130 A 
ATOM      5  N   UNL     1       3.986  -0.756  -0.041  0.00  0.00    -0.220 NA
ATOM      6  C   UNL     1       3.166  -1.792  -0.039  0.00  0.00    +0.225 A 
ATOM      7  N   UNL     1       1.857  -1.662  -0.025  0.00  0.00    -0.218 NA
ATOM      8  C   UNL     1       1.293  -0.455  -0.013  0.00  0.00    +0.149 A 
ATOM      9  N   UNL     1       0.002  -0.004   0.002  0.00  0.00    -0.302 N 
ATOM     10  N   UNL     1       4.381   1.570  -0.032  0.00  0.00    -0.343 N 
ATOM     11  I   UNL     1       1.820   3.853   0.005  0.00  0.00    -0.041 I 
ATOM     12  H   UNL     1       4.027   2.473  -0.024  0.00  0.00    +0.144 HD
ATOM     13  H   UNL     1       5.340   1.425  -0.042  0.00  0.00    +0.144 HD
ENDROOT
BRANCH   9  14
ATOM     14  C1* UNL     1      -1.187  -0.860   0.009  0.00  0.00    +0.252 C 
ATOM     15  C2* UNL     1      -1.558  -1.253   1.457  0.00  0.00    +0.195 C 
ATOM     16  C3* UNL     1      -3.103  -1.246   1.463  0.00  0.00    +0.178 C 
ATOM     17  C4* UNL     1      -3.482  -0.851   0.019  0.00  0.00    +0.177 C 
ATOM     18  O4* UNL     1      -2.333  -0.134  -0.484  0.00  0.00    -0.346 OA
BRANCH  16  19
ATOM     19  O3* UNL     1      -3.607  -2.546   1.779  0.00  0.00    -0.386 OA
ATOM     20  H3* UNL     1      -4.573  -2.599   1.796  0.00  0.00    +0.210 HD
ENDBRANCH  16  19
BRANCH  15  21
ATOM     21  O2* UNL     1      -1.058  -2.555   1.766  0.00  0.00    -0.385 OA
ATOM     22  H2* UNL     1      -1.263  -2.852   2.663  0.00  0.00    +0.210 HD
ENDBRANCH  15  21
BRANCH  17  23
ATOM     23  C5* UNL     1      -4.718   0.051   0.021  0.00  0.00    +0.190 C 
BRANCH  23  24
ATOM     24  O5* UNL     1      -5.121   0.310  -1.325  0.00  0.00    -0.392 OA
ATOM     25  H5* UNL     1      -5.901   0.877  -1.400  0.00  0.00    +0.210 HD
ENDBRANCH  23  24
ENDBRANCH  17  23
ENDBRANCH   9  14
TORSDOF 5
