REMARK  Name = CHEMBL414139
REMARK  12 active torsions:
REMARK  status: ('A' for Active; 'I' for Inactive)
REMARK    1  A    between atoms: C_1  and  O_2
REMARK    2  A    between atoms: O_2  and  C_3
REMARK    3  A    between atoms: C_8  and  O_9
REMARK    4  A    between atoms: O_9  and  C_10
REMARK    5  A    between atoms: C_10  and  C_11
REMARK    6  A    between atoms: C_11  and  C_12
REMARK    7  A    between atoms: C_12  and  N_13
REMARK    8  A    between atoms: C_21  and  C_37
REMARK    9  A    between atoms: C_22  and  N_23
REMARK   10  A    between atoms: N_23  and  C_24
REMARK   11  A    between atoms: C_27  and  O_30
REMARK   12  A    between atoms: O_30  and  C_31
REMARK                            x       y       z     vdW  Elec       q    Type
REMARK                         _______ _______ _______ _____ _____    ______ ____
ROOT
ATOM      1  C   UNL     1       2.365  -0.983  -3.149  0.00  0.00    +0.162 A 
ATOM      2  C   UNL     1       2.000   0.012  -4.010  0.00  0.00    +0.061 A 
ATOM      3  C   UNL     1       1.430  -0.314  -5.250  0.00  0.00    +0.026 A 
ATOM      4  C   UNL     1       1.235  -1.671  -5.604  0.00  0.00    +0.077 A 
ATOM      5  C   UNL     1       1.618  -2.675  -4.701  0.00  0.00    +0.077 A 
ATOM      6  C   UNL     1       2.181  -2.329  -3.494  0.00  0.00    +0.164 A 
ATOM      7  N   UNL     1       0.691  -1.988  -6.788  0.00  0.00    -0.253 NA
ATOM      8  C   UNL     1       0.324  -1.075  -7.650  0.00  0.00    +0.132 A 
ATOM      9  C   UNL     1       0.481   0.294  -7.383  0.00  0.00    +0.091 A 
ATOM     10  C   UNL     1       1.043   0.696  -6.162  0.00  0.00    +0.060 A 
ENDROOT
BRANCH   1  12
ATOM     11  C   UNL     1       3.079   0.725  -1.656  0.00  0.00    +0.277 C 
ATOM     12  O   UNL     1       2.918  -0.664  -1.948  0.00  0.00    -0.491 OA
ENDBRANCH   1  12
BRANCH  10  13
ATOM     13  N   UNL     1       1.213   2.032  -5.860  0.00  0.00    -0.313 N 
ATOM     14  H   UNL     1       0.504   2.524  -5.417  0.00  0.00    +0.152 HD
BRANCH  13  15
ATOM     15  C   UNL     1       2.409   2.678  -6.194  0.00  0.00    +0.032 A 
ATOM     16  C   UNL     1       3.459   1.954  -6.743  0.00  0.00    +0.027 A 
ATOM     17  C   UNL     1       4.639   2.592  -7.072  0.00  0.00    +0.048 A 
ATOM     18  C   UNL     1       4.775   3.955  -6.854  0.00  0.00    +0.129 A 
ATOM     19  C   UNL     1       3.726   4.679  -6.305  0.00  0.00    +0.048 A 
ATOM     20  C   UNL     1       2.544   4.044  -5.981  0.00  0.00    +0.027 A 
BRANCH  18  21
ATOM     21  O   UNL     1       5.937   4.582  -7.178  0.00  0.00    -0.456 OA
BRANCH  21  22
ATOM     22  C   UNL     1       6.022   5.921  -6.960  0.00  0.00    +0.128 A 
ATOM     23  C   UNL     1       6.484   6.399  -5.742  0.00  0.00    +0.046 A 
ATOM     24  C   UNL     1       6.570   7.760  -5.523  0.00  0.00    +0.004 A 
ATOM     25  C   UNL     1       6.194   8.646  -6.516  0.00  0.00    +0.000 A 
ATOM     26  C   UNL     1       5.733   8.173  -7.730  0.00  0.00    +0.004 A 
ATOM     27  C   UNL     1       5.651   6.812  -7.957  0.00  0.00    +0.046 A 
ENDBRANCH  21  22
ENDBRANCH  18  21
ENDBRANCH  13  15
ENDBRANCH  10  13
BRANCH   9  28
ATOM     28  C   UNL     1       0.071   1.271  -8.347  0.00  0.00    +0.103 C 
ATOM     29  N   UNL     1      -0.254   2.046  -9.111  0.00  0.00    -0.191 NA
ENDBRANCH   9  28
BRANCH   6  30
ATOM     30  O   UNL     1       2.557  -3.303  -2.624  0.00  0.00    -0.488 OA
BRANCH  30  31
ATOM     31  C   UNL     1       2.343  -4.655  -3.033  0.00  0.00    +0.227 C 
BRANCH  31  32
ATOM     32  C   UNL     1       2.825  -5.603  -1.933  0.00  0.00    +0.022 C 
BRANCH  32  33
ATOM     33  C   UNL     1       2.596  -7.051  -2.370  0.00  0.00    -0.075 C 
BRANCH  33  34
ATOM     34  N   UNL     1       3.058  -7.961  -1.314  0.00  0.00    +0.383 N 
ATOM     35  C   UNL     1       4.513  -7.829  -1.156  0.00  0.00    -0.050 C 
ATOM     36  C   UNL     1       4.993  -8.777  -0.054  0.00  0.00    +0.141 C 
ATOM     37  O   UNL     1       4.620 -10.117  -0.390  0.00  0.00    -0.383 OA
ATOM     38  C   UNL     1       3.213 -10.291  -0.579  0.00  0.00    +0.141 C 
ATOM     39  C   UNL     1       2.731  -9.345  -1.681  0.00  0.00    -0.050 C 
ATOM     40  H   UNL     1       2.603  -7.726  -0.445  0.00  0.00    -0.082 HD
ENDBRANCH  33  34
ENDBRANCH  32  33
ENDBRANCH  31  32
ENDBRANCH  30  31
ENDBRANCH   6  30
TORSDOF 11
