REMARK  Name = CHEMBL220272
REMARK  6 active torsions:
REMARK  status: ('A' for Active; 'I' for Inactive)
REMARK    1  A    between atoms: C_4  and  C_7
REMARK    2  A    between atoms: C_7  and  O_8
REMARK    3  A    between atoms: O_8  and  N_9
REMARK    4  A    between atoms: C_10  and  C_12
REMARK    5  A    between atoms: C_14  and  C_18
REMARK    6  A    between atoms: C_19  and  C_24
REMARK                            x       y       z     vdW  Elec       q    Type
REMARK                         _______ _______ _______ _____ _____    ______ ____
ROOT
ATOM      1  C   UNL     1       7.170  -2.640   2.708  0.00  0.00    +0.104 A 
ATOM      2  C   UNL     1       7.803  -2.999   3.866  0.00  0.00    +0.042 A 
ATOM      3  C   UNL     1       8.990  -3.661   3.499  0.00  0.00    +0.021 A 
ATOM      4  C   UNL     1       9.041  -3.684   2.134  0.00  0.00    +0.093 A 
ATOM      5  N   UNL     1       7.940  -3.072   1.652  0.00  0.00    -0.356 N 
ATOM      6  H   UNL     1       7.726  -2.953   0.713  0.00  0.00    +0.165 HD
ENDROOT
BRANCH   3   7
ATOM      7  C   UNL     1      10.001  -4.230   4.425  0.00  0.00    +0.102 A 
ATOM      8  C   UNL     1      10.765  -5.404   4.208  0.00  0.00    +0.027 A 
ATOM      9  C   UNL     1      11.570  -5.574   5.294  0.00  0.00    +0.114 A 
ATOM     10  N   UNL     1      11.328  -4.562   6.152  0.00  0.00    -0.284 N 
ATOM     11  N   UNL     1      10.350  -3.732   5.590  0.00  0.00    -0.173 NA
ATOM     12  H   UNL     1      11.759  -4.430   7.010  0.00  0.00    +0.188 HD
BRANCH   8  13
ATOM     13  C   UNL     1      10.699  -6.286   3.017  0.00  0.00    -0.013 A 
ATOM     14  C   UNL     1       9.467  -6.742   2.552  0.00  0.00    +0.009 A 
ATOM     15  C   UNL     1       9.412  -7.562   1.443  0.00  0.00    +0.002 A 
ATOM     16  C   UNL     1      10.575  -7.932   0.793  0.00  0.00    +0.020 A 
ATOM     17  C   UNL     1      11.802  -7.482   1.251  0.00  0.00    +0.042 A 
ATOM     18  C   UNL     1      11.868  -6.656   2.356  0.00  0.00    +0.028 A 
ATOM     19 CL   UNL     1      13.258  -7.951   0.430  0.00  0.00    -0.084 Cl
ENDBRANCH   8  13
ENDBRANCH   3   7
BRANCH   1  21
ATOM     20  N   UNL     1       5.374  -1.636   1.399  0.00  0.00    -0.189 N 
ATOM     21  C   UNL     1       5.893  -1.925   2.610  0.00  0.00    +0.283 C 
ATOM     22  O   UNL     1       5.301  -1.593   3.620  0.00  0.00    -0.266 OA
ATOM     23  H   UNL     1       5.846  -1.900   0.594  0.00  0.00    +0.183 HD
BRANCH  20  24
ATOM     24  O   UNL     1       4.141  -0.946   1.304  0.00  0.00    -0.275 OA
BRANCH  24  25
ATOM     25  C   UNL     1       3.711  -0.707  -0.038  0.00  0.00    +0.225 C 
BRANCH  25  29
ATOM     26  C   UNL     1      -0.017   1.378   0.010  0.00  0.00    +0.000 A 
ATOM     27  C   UNL     1       1.171   2.086   0.002  0.00  0.00    +0.000 A 
ATOM     28  C   UNL     1       2.377   1.411  -0.013  0.00  0.00    +0.006 A 
ATOM     29  C   UNL     1       2.396   0.029  -0.020  0.00  0.00    -0.020 A 
ATOM     30  C   UNL     1       1.208  -0.679  -0.012  0.00  0.00    +0.006 A 
ATOM     31  C   UNL     1       0.002  -0.004   0.002  0.00  0.00    +0.000 A 
ENDBRANCH  25  29
ENDBRANCH  24  25
ENDBRANCH  20  24
ENDBRANCH   1  21
TORSDOF 6
