REMARK  Name = CHEMBL373797
REMARK  6 active torsions:
REMARK  status: ('A' for Active; 'I' for Inactive)
REMARK    1  A    between atoms: C_1  and  N_2
REMARK    2  A    between atoms: N_2  and  C_3
REMARK    3  A    between atoms: C_3  and  C_4
REMARK    4  A    between atoms: C_10  and  C_12
REMARK    5  A    between atoms: C_14  and  C_18
REMARK    6  A    between atoms: C_19  and  C_24
REMARK                            x       y       z     vdW  Elec       q    Type
REMARK                         _______ _______ _______ _____ _____    ______ ____
ROOT
ATOM      1  C   UNL     1      -0.124   0.063  -2.432  0.00  0.00    +0.103 A 
ATOM      2  C   UNL     1      -0.326  -0.477  -3.671  0.00  0.00    +0.042 A 
ATOM      3  C   UNL     1      -0.268   0.582  -4.598  0.00  0.00    +0.021 A 
ATOM      4  C   UNL     1      -0.033   1.729  -3.895  0.00  0.00    +0.093 A 
ATOM      5  N   UNL     1       0.049   1.421  -2.584  0.00  0.00    -0.356 N 
ATOM      6  H   UNL     1       0.206   2.052  -1.865  0.00  0.00    +0.165 HD
ENDROOT
BRANCH   3   7
ATOM      7  C   UNL     1      -0.431   0.471  -6.069  0.00  0.00    +0.102 A 
ATOM      8  C   UNL     1      -1.042   1.431  -6.916  0.00  0.00    +0.027 A 
ATOM      9  C   UNL     1      -0.986   0.947  -8.189  0.00  0.00    +0.114 A 
ATOM     10  N   UNL     1      -0.373  -0.253  -8.149  0.00  0.00    -0.284 N 
ATOM     11  N   UNL     1      -0.030  -0.531  -6.820  0.00  0.00    -0.173 NA
ATOM     12  H   UNL     1      -0.198  -0.826  -8.911  0.00  0.00    +0.188 HD
BRANCH   8  13
ATOM     13  C   UNL     1      -1.633   2.724  -6.493  0.00  0.00    -0.013 A 
ATOM     14  C   UNL     1      -2.538   2.766  -5.433  0.00  0.00    +0.009 A 
ATOM     15  C   UNL     1      -3.085   3.971  -5.043  0.00  0.00    +0.002 A 
ATOM     16  C   UNL     1      -2.738   5.137  -5.702  0.00  0.00    +0.020 A 
ATOM     17  C   UNL     1      -1.841   5.101  -6.756  0.00  0.00    +0.042 A 
ATOM     18  C   UNL     1      -1.283   3.901  -7.150  0.00  0.00    +0.028 A 
ATOM     19 CL   UNL     1      -1.412   6.569  -7.579  0.00  0.00    -0.084 Cl
ENDBRANCH   8  13
ENDBRANCH   3   7
BRANCH   1  22
ATOM     20  C   UNL     1      -0.173   1.459   0.014  0.00  0.00    +0.132 C 
ATOM     21  N   UNL     1      -0.059  -0.002   0.004  0.00  0.00    -0.295 N 
ATOM     22  C   UNL     1      -0.102  -0.673  -1.163  0.00  0.00    +0.263 C 
ATOM     23  O   UNL     1      -0.121  -1.890  -1.165  0.00  0.00    -0.268 OA
BRANCH  21  24
ATOM     24  C   UNL     1       0.100  -0.733   1.264  0.00  0.00    +0.142 C 
BRANCH  24  25
ATOM     25  C   UNL     1      -1.258  -1.093   1.810  0.00  0.00    -0.030 A 
ATOM     26  C   UNL     1      -1.914  -0.223   2.660  0.00  0.00    +0.005 A 
ATOM     27  C   UNL     1      -3.159  -0.554   3.161  0.00  0.00    +0.000 A 
ATOM     28  C   UNL     1      -3.748  -1.755   2.812  0.00  0.00    +0.000 A 
ATOM     29  C   UNL     1      -3.091  -2.625   1.962  0.00  0.00    +0.000 A 
ATOM     30  C   UNL     1      -1.848  -2.292   1.458  0.00  0.00    +0.005 A 
ENDBRANCH  24  25
ENDBRANCH  21  24
ENDBRANCH   1  22
TORSDOF 5
