REMARK  Name = CHEMBL359106
REMARK  0 active torsions:
REMARK  status: ('A' for Active; 'I' for Inactive)
REMARK                            x       y       z     vdW  Elec       q    Type
REMARK                         _______ _______ _______ _____ _____    ______ ____
ROOT
ATOM      1  C   UNL     1      -0.016   1.352   0.009  0.00  0.00    +0.043 A 
ATOM      2  C   UNL     1       1.315   1.790  -0.001  0.00  0.00    +0.011 A 
ATOM      3  C   UNL     1       2.118   0.638  -0.054  0.00  0.00    +0.110 A 
ATOM      4  N   UNL     1       1.294  -0.440  -0.018  0.00  0.00    -0.345 N 
ATOM      5  H   UNL     1       1.577  -1.368  -0.009  0.00  0.00    +0.167 HD
ATOM      6  C   UNL     1       0.002  -0.004   0.002  0.00  0.00    +0.084 A 
ATOM      7 BR   UNL     1      -1.526  -1.117   0.018  0.00  0.00    -0.031 Br
ATOM      8  C   UNL     1       3.577   0.739  -0.187  0.00  0.00    +0.261 C 
ATOM      9  O   UNL     1       4.193   0.017  -0.949  0.00  0.00    -0.269 OA
ATOM     10  N   UNL     1       4.212   1.669   0.572  0.00  0.00    -0.310 N 
ATOM     11  C   UNL     1       3.543   2.286   1.707  0.00  0.00    +0.109 C 
ATOM     12  C   UNL     1       2.676   3.487   1.317  0.00  0.00    +0.056 C 
ATOM     13  C   UNL     1       1.877   3.142   0.075  0.00  0.00    -0.010 C 
ATOM     14  C   UNL     1       1.690   4.046  -0.924  0.00  0.00    +0.105 C 
ATOM     15  C   UNL     1       0.939   3.853  -2.172  0.00  0.00    +0.295 C 
ATOM     16  O   UNL     1       0.292   2.729  -2.553  0.00  0.00    -0.264 OA
ATOM     17  N   UNL     1       1.013   4.979  -2.849  0.00  0.00    -0.174 NA
ATOM     18  C   UNL     1       1.733   5.888  -2.176  0.00  0.00    +0.216 C 
ATOM     19  N   UNL     1       2.166   5.359  -0.980  0.00  0.00    -0.279 N 
ATOM     20  N   UNL     1       1.984   7.106  -2.593  0.00  0.00    -0.268 NA
ATOM     21  H   UNL     1       5.123   1.923   0.356  0.00  0.00    +0.149 HD
ATOM     22  H   UNL     1       2.515   7.707  -2.046  0.00  0.00    +0.190 HD
ATOM     23  H   UNL     1       2.700   5.810  -0.307  0.00  0.00    +0.155 HD
ENDROOT
TORSDOF 0
