REMARK  Name = CHEMBL599224
REMARK  4 active torsions:
REMARK  status: ('A' for Active; 'I' for Inactive)
REMARK    1  A    between atoms: C_1  and  C_2
REMARK    2  A    between atoms: C_7  and  N_10
REMARK    3  A    between atoms: C_19  and  C_23
REMARK    4  A    between atoms: N_21  and  C_22
REMARK                            x       y       z     vdW  Elec       q    Type
REMARK                         _______ _______ _______ _____ _____    ______ ____
ROOT
ATOM      1  N   UNL     1      -4.225  -2.534   2.195  0.00  0.00    -0.311 N 
ATOM      2  C   UNL     1      -4.899  -3.736   2.065  0.00  0.00    +0.216 A 
ATOM      3  N   UNL     1      -4.781  -4.425   0.939  0.00  0.00    -0.223 NA
ATOM      4  C   UNL     1      -5.420  -5.572   0.761  0.00  0.00    +0.120 A 
ATOM      5  C   UNL     1      -6.218  -6.061   1.778  0.00  0.00    -0.001 A 
ATOM      6  C   UNL     1      -6.297  -5.320   2.965  0.00  0.00    +0.097 A 
ATOM      7  N   UNL     1      -5.644  -4.173   3.072  0.00  0.00    -0.213 NA
ATOM      8  C   UNL     1      -7.082  -5.896   4.070  0.00  0.00    +0.091 A 
ATOM      9  C   UNL     1      -7.468  -7.219   4.030  0.00  0.00    +0.012 A 
ATOM     10  C   UNL     1      -8.193  -7.435   5.203  0.00  0.00    +0.151 A 
ATOM     11  N   UNL     1      -8.191  -6.295   5.878  0.00  0.00    -0.166 NA
ATOM     12  N   UNL     1      -7.534  -5.389   5.234  0.00  0.00    -0.264 N 
ATOM     13  C   UNL     1      -7.312  -4.018   5.699  0.00  0.00    +0.173 C 
ATOM     14  C   UNL     1      -7.100  -8.136   2.901  0.00  0.00    +0.044 C 
ATOM     15  C   UNL     1      -6.991  -7.336   1.602  0.00  0.00    +0.043 C 
ATOM     16  H   UNL     1      -4.300  -2.022   3.016  0.00  0.00    +0.149 HD
ENDROOT
BRANCH   1  23
ATOM     17  C   UNL     1      -0.018   1.503   0.010  0.00  0.00    +0.109 C 
ATOM     18  C   UNL     1       0.002  -0.004   0.002  0.00  0.00    +0.212 C 
ATOM     19  O   UNL     1       1.060  -0.596  -0.011  0.00  0.00    -0.276 OA
ATOM     20  N   UNL     1      -1.156  -0.694   0.009  0.00  0.00    -0.302 N 
ATOM     21  C   UNL     1      -2.446   0.009   0.019  0.00  0.00    +0.109 C 
ATOM     22  C   UNL     1      -3.283  -0.512   1.192  0.00  0.00    +0.041 C 
ATOM     23  C   UNL     1      -3.397  -2.035   1.094  0.00  0.00    +0.076 C 
ATOM     24  C   UNL     1      -2.003  -2.660   1.180  0.00  0.00    +0.041 C 
ATOM     25  C   UNL     1      -1.152  -2.163   0.001  0.00  0.00    +0.109 C 
ENDBRANCH   1  23
BRANCH  10  26
ATOM     26  C   UNL     1      -8.841  -8.697   5.615  0.00  0.00    +0.262 C 
ATOM     27  O   UNL     1      -8.768  -9.679   4.901  0.00  0.00    -0.269 OA
ATOM     28  N   UNL     1      -9.512  -8.761   6.782  0.00  0.00    -0.324 N 
ATOM     29  H   UNL     1      -9.570  -7.978   7.351  0.00  0.00    +0.145 HD
ATOM     30  H   UNL     1      -9.938  -9.590   7.052  0.00  0.00    +0.145 HD
ENDBRANCH  10  26
TORSDOF 2
