REMARK  Name = CHEMBL572361
REMARK  10 active torsions:
REMARK  status: ('A' for Active; 'I' for Inactive)
REMARK    1  A    between atoms: C_1  and  C_2
REMARK    2  A    between atoms: C_2  and  C_3
REMARK    3  A    between atoms: C_8  and  N_9
REMARK    4  A    between atoms: C_13  and  C_35
REMARK    5  A    between atoms: C_14  and  C_16
REMARK    6  A    between atoms: CA_18  and  C_22
REMARK    7  A    between atoms: N_24  and  CA_25
REMARK    8  A    between atoms: CA_25  and  C_27
REMARK    9  A    between atoms: CA_25  and  C_29
REMARK   10  A    between atoms: C_27  and  O_28
REMARK                            x       y       z     vdW  Elec       q    Type
REMARK                         _______ _______ _______ _____ _____    ______ ____
ROOT
ATOM      1  C   UNL     1       7.308   0.201   1.988  0.00  0.00    +0.019 A 
ATOM      2  C   UNL     1       7.145   1.329   2.817  0.00  0.00    +0.042 A 
ATOM      3  CA  UNL     1       8.128   1.277   3.763  0.00  0.00    +0.102 A 
ATOM      4  N   UNL     1       8.885   0.149   3.535  0.00  0.00    -0.356 N 
ATOM      5  H   UNL     1       9.650  -0.131   4.062  0.00  0.00    +0.165 HD
ATOM      6  C   UNL     1       8.389  -0.505   2.468  0.00  0.00    +0.093 A 
ENDROOT
BRANCH   1  12
ATOM      7  N   UNL     1       4.865  -3.050  -0.522  0.00  0.00    -0.283 N 
ATOM      8  C   UNL     1       5.292  -1.739  -0.382  0.00  0.00    +0.220 A 
ATOM      9  N   UNL     1       4.939  -0.844  -1.293  0.00  0.00    -0.222 NA
ATOM     10  C   UNL     1       5.326   0.418  -1.195  0.00  0.00    +0.120 A 
ATOM     11  C   UNL     1       6.111   0.804  -0.124  0.00  0.00    -0.006 A 
ATOM     12  C   UNL     1       6.468  -0.162   0.822  0.00  0.00    +0.080 A 
ATOM     13  N   UNL     1       6.038  -1.412   0.661  0.00  0.00    -0.214 NA
ATOM     14  C   UNL     1       6.571   2.232   0.021  0.00  0.00    +0.047 C 
ATOM     15  H   UNL     1       5.181  -3.731   0.092  0.00  0.00    +0.155 HD
BRANCH   7  21
ATOM     16  C   UNL     1       4.046  -4.646  -2.138  0.00  0.00    -0.026 A 
ATOM     17  C   UNL     1       3.167  -4.981  -3.148  0.00  0.00    +0.005 A 
ATOM     18  C   UNL     1       2.223  -4.066  -3.577  0.00  0.00    +0.000 A 
ATOM     19  C   UNL     1       2.157  -2.812  -2.997  0.00  0.00    +0.002 A 
ATOM     20  C   UNL     1       3.034  -2.471  -1.986  0.00  0.00    +0.023 A 
ATOM     21  C   UNL     1       3.979  -3.390  -1.549  0.00  0.00    +0.037 A 
BRANCH  16  23
ATOM     22  C   UNL     1       4.533  -6.404  -0.458  0.00  0.00    +0.009 C 
ATOM     23  C   UNL     1       5.074  -5.644  -1.670  0.00  0.00    +0.033 C 
ENDBRANCH  16  23
ENDBRANCH   7  21
ENDBRANCH   1  12
BRANCH   3  24
ATOM     24  C   UNL     1       8.341   2.253   4.838  0.00  0.00    +0.261 C 
ATOM     25  O   UNL     1       7.604   3.216   4.940  0.00  0.00    -0.269 OA
ATOM     26  N   UNL     1       9.354   2.084   5.711  0.00  0.00    -0.301 N 
ATOM     27  H   UNL     1       9.941   1.317   5.630  0.00  0.00    +0.150 HD
BRANCH  26  28
ATOM     28  CA  UNL     1       9.566   3.059   6.784  0.00  0.00    +0.129 C 
BRANCH  28  29
ATOM     29  C   UNL     1      10.285   2.396   7.930  0.00  0.00    -0.025 A 
ATOM     30  C   UNL     1      11.309   1.501   7.679  0.00  0.00    +0.005 A 
ATOM     31  C   UNL     1      11.968   0.892   8.730  0.00  0.00    +0.000 A 
ATOM     32  C   UNL     1      11.605   1.179  10.033  0.00  0.00    +0.000 A 
ATOM     33  C   UNL     1      10.582   2.075  10.284  0.00  0.00    +0.000 A 
ATOM     34  C   UNL     1       9.926   2.687   9.233  0.00  0.00    +0.005 A 
ENDBRANCH  28  29
BRANCH  28  35
ATOM     35  C   UNL     1      10.410   4.221   6.256  0.00  0.00    +0.182 C 
BRANCH  35  36
ATOM     36  O   UNL     1      11.713   3.747   5.913  0.00  0.00    -0.393 OA
ATOM     37  H   UNL     1      12.304   4.431   5.571  0.00  0.00    +0.209 HD
ENDBRANCH  35  36
ENDBRANCH  28  35
ENDBRANCH  26  28
ENDBRANCH   3  24
TORSDOF 8
