REMARK  Name = CHEMBL220110
REMARK  3 active torsions:
REMARK  status: ('A' for Active; 'I' for Inactive)
REMARK    1  A    between atoms: C_3  and  C_8
REMARK    2  A    between atoms: C_13  and  C_14
REMARK    3  A    between atoms: C_16  and  C_20
REMARK                            x       y       z     vdW  Elec       q    Type
REMARK                         _______ _______ _______ _____ _____    ______ ____
ROOT
ATOM      1  C   UNL     1       3.690   2.116  -0.062  0.00  0.00    +0.027 A 
ATOM      2  C   UNL     1       4.051   3.130  -0.969  0.00  0.00    +0.143 A 
ATOM      3  N   UNL     1       5.205   3.622  -0.604  0.00  0.00    -0.181 NA
ATOM      4  N   UNL     1       5.643   2.956   0.547  0.00  0.00    -0.276 N 
ATOM      5  H   UNL     1       6.470   3.127   1.023  0.00  0.00    +0.189 HD
ATOM      6  C   UNL     1       4.703   2.029   0.883  0.00  0.00    +0.075 A 
ENDROOT
BRANCH   1   9
ATOM      7  C   UNL     1       0.459   0.488   0.956  0.00  0.00    +0.002 A 
ATOM      8  C   UNL     1       1.608   1.252   1.001  0.00  0.00    +0.009 A 
ATOM      9  C   UNL     1       2.455   1.298  -0.105  0.00  0.00    -0.013 A 
ATOM     10  C   UNL     1       2.136   0.572  -1.251  0.00  0.00    +0.028 A 
ATOM     11  C   UNL     1       0.984  -0.189  -1.285  0.00  0.00    +0.042 A 
ATOM     12  C   UNL     1       0.146  -0.230  -0.183  0.00  0.00    +0.020 A 
ATOM     13 CL   UNL     1       0.585  -1.094  -2.712  0.00  0.00    -0.084 Cl
ENDBRANCH   1   9
BRANCH   6  14
ATOM     14  C   UNL     1       4.753   1.105   2.036  0.00  0.00    +0.018 A 
ATOM     15  C   UNL     1       5.081   1.441   3.365  0.00  0.00    +0.042 A 
ATOM     16  C   UNL     1       5.006   0.292   4.101  0.00  0.00    +0.103 A 
ATOM     17  N   UNL     1       4.641  -0.734   3.260  0.00  0.00    -0.356 N 
ATOM     18  H   UNL     1       4.515  -1.659   3.523  0.00  0.00    +0.165 HD
ATOM     19  C   UNL     1       4.481  -0.247   2.013  0.00  0.00    +0.093 A 
BRANCH  16  20
ATOM     20  C   UNL     1       5.269   0.173   5.539  0.00  0.00    +0.263 C 
ATOM     21  O   UNL     1       5.586   1.156   6.183  0.00  0.00    -0.268 OA
ATOM     22  N   UNL     1       5.158  -1.024   6.148  0.00  0.00    -0.296 N 
ATOM     23  C   UNL     1       4.790  -2.288   5.492  0.00  0.00    +0.108 C 
ATOM     24  C   UNL     1       4.766  -3.379   6.583  0.00  0.00    +0.020 C 
ATOM     25  C   UNL     1       4.569  -2.563   7.887  0.00  0.00    +0.020 C 
ATOM     26  C   UNL     1       5.392  -1.285   7.580  0.00  0.00    +0.108 C 
ENDBRANCH  16  20
ENDBRANCH   6  14
TORSDOF 3
