REMARK  Name = CHEMBL220320
REMARK  5 active torsions:
REMARK  status: ('A' for Active; 'I' for Inactive)
REMARK    1  A    between atoms: C_4  and  C_7
REMARK    2  A    between atoms: C_7  and  N_8
REMARK    3  A    between atoms: C_9  and  C_11
REMARK    4  A    between atoms: C_13  and  C_17
REMARK    5  A    between atoms: C_18  and  C_23
REMARK                            x       y       z     vdW  Elec       q    Type
REMARK                         _______ _______ _______ _____ _____    ______ ____
ROOT
ATOM      1  C   UNL     1       6.402  -1.703   2.511  0.00  0.00    +0.102 A 
ATOM      2  C   UNL     1       7.389  -2.476   3.052  0.00  0.00    +0.042 A 
ATOM      3  C   UNL     1       7.283  -2.363   4.454  0.00  0.00    +0.018 A 
ATOM      4  C   UNL     1       6.226  -1.517   4.716  0.00  0.00    +0.093 A 
ATOM      5  N   UNL     1       5.700  -1.117   3.541  0.00  0.00    -0.356 N 
ATOM      6  H   UNL     1       4.947  -0.514   3.437  0.00  0.00    +0.165 HD
ENDROOT
BRANCH   3   7
ATOM      7  C   UNL     1       8.145  -3.026   5.456  0.00  0.00    +0.075 A 
ATOM      8  C   UNL     1       8.532  -4.359   5.459  0.00  0.00    +0.027 A 
ATOM      9  C   UNL     1       9.345  -4.556   6.589  0.00  0.00    +0.143 A 
ATOM     10  N   UNL     1       9.447  -3.422   7.229  0.00  0.00    -0.181 NA
ATOM     11  N   UNL     1       8.715  -2.443   6.547  0.00  0.00    -0.276 N 
ATOM     12  H   UNL     1       8.627  -1.513   6.807  0.00  0.00    +0.189 HD
BRANCH   8  13
ATOM     13  C   UNL     1       8.156  -5.386   4.457  0.00  0.00    -0.013 A 
ATOM     14  C   UNL     1       6.812  -5.632   4.178  0.00  0.00    +0.009 A 
ATOM     15  C   UNL     1       6.468  -6.588   3.244  0.00  0.00    +0.002 A 
ATOM     16  C   UNL     1       7.453  -7.302   2.585  0.00  0.00    +0.020 A 
ATOM     17  C   UNL     1       8.789  -7.062   2.858  0.00  0.00    +0.042 A 
ATOM     18  C   UNL     1       9.145  -6.103   3.786  0.00  0.00    +0.028 A 
ATOM     19 CL   UNL     1      10.018  -7.963   2.027  0.00  0.00    -0.084 Cl
ENDBRANCH   8  13
ENDBRANCH   3   7
BRANCH   1  21
ATOM     20  N   UNL     1       5.130  -0.725   0.674  0.00  0.00    -0.306 N 
ATOM     21  C   UNL     1       6.137  -1.524   1.079  0.00  0.00    +0.261 C 
ATOM     22  O   UNL     1       6.828  -2.096   0.256  0.00  0.00    -0.269 OA
ATOM     23  H   UNL     1       4.580  -0.268   1.330  0.00  0.00    +0.149 HD
BRANCH  20  24
ATOM     24  C   UNL     1       4.867  -0.545  -0.756  0.00  0.00    +0.140 C 
BRANCH  24  28
ATOM     25  C   UNL     1       1.553   2.101  -1.274  0.00  0.00    +0.000 A 
ATOM     26  C   UNL     1       2.838   2.606  -1.210  0.00  0.00    +0.000 A 
ATOM     27  C   UNL     1       3.910   1.750  -1.042  0.00  0.00    +0.005 A 
ATOM     28  C   UNL     1       3.698   0.388  -0.938  0.00  0.00    -0.030 A 
ATOM     29  C   UNL     1       2.413  -0.117  -1.000  0.00  0.00    +0.005 A 
ATOM     30  C   UNL     1       1.341   0.739  -1.170  0.00  0.00    +0.000 A 
ENDBRANCH  24  28
ENDBRANCH  20  24
ENDBRANCH   1  21
TORSDOF 5
