REMARK  Name = CHEMBL359106
REMARK  0 active torsions:
REMARK  status: ('A' for Active; 'I' for Inactive)
REMARK                            x       y       z     vdW  Elec       q    Type
REMARK                         _______ _______ _______ _____ _____    ______ ____
ROOT
ATOM      1  C   UNL     1      -0.016   1.352   0.009  0.00  0.00    +0.043 A 
ATOM      2  C   UNL     1       1.315   1.790  -0.001  0.00  0.00    +0.011 A 
ATOM      3  C   UNL     1       2.117   0.638  -0.054  0.00  0.00    +0.110 A 
ATOM      4  N   UNL     1       1.294  -0.440  -0.018  0.00  0.00    -0.345 N 
ATOM      5  H   UNL     1       1.577  -1.367  -0.009  0.00  0.00    +0.167 HD
ATOM      6  C   UNL     1       0.002  -0.004   0.002  0.00  0.00    +0.084 A 
ATOM      7 BR   UNL     1      -1.526  -1.118   0.018  0.00  0.00    -0.031 Br
ATOM      8  C   UNL     1       3.577   0.739  -0.187  0.00  0.00    +0.261 C 
ATOM      9  O   UNL     1       4.193   0.017  -0.949  0.00  0.00    -0.269 OA
ATOM     10  N   UNL     1       4.213   1.669   0.572  0.00  0.00    -0.310 N 
ATOM     11  C   UNL     1       3.544   2.287   1.707  0.00  0.00    +0.109 C 
ATOM     12  C   UNL     1       2.677   3.488   1.317  0.00  0.00    +0.056 C 
ATOM     13  C   UNL     1       1.877   3.143   0.075  0.00  0.00    -0.010 C 
ATOM     14  C   UNL     1       1.690   4.045  -0.921  0.00  0.00    +0.102 C 
ATOM     15  C   UNL     1       0.936   3.858  -2.178  0.00  0.00    +0.284 C 
ATOM     16  O   UNL     1       0.348   2.851  -2.535  0.00  0.00    -0.267 OA
ATOM     17  N   UNL     1       1.028   5.016  -2.846  0.00  0.00    -0.146 NA
ATOM     18  C   UNL     1       1.739   5.887  -2.163  0.00  0.00    +0.174 C 
ATOM     19  N   UNL     1       2.164   5.359  -0.983  0.00  0.00    -0.285 N 
ATOM     20  N   UNL     1       2.011   7.160  -2.582  0.00  0.00    -0.333 N 
ATOM     21  H   UNL     1       5.123   1.924   0.355  0.00  0.00    +0.149 HD
ATOM     22  H   UNL     1       1.671   7.473  -3.435  0.00  0.00    +0.145 HD
ATOM     23  H   UNL     1       2.543   7.750  -2.027  0.00  0.00    +0.145 HD
ATOM     24  H   UNL     1       2.698   5.810  -0.310  0.00  0.00    +0.155 HD
ENDROOT
TORSDOF 0
