REMARK  Name = CHEMBL220888
REMARK  6 active torsions:
REMARK  status: ('A' for Active; 'I' for Inactive)
REMARK    1  A    between atoms: C_4  and  C_7
REMARK    2  A    between atoms: C_7  and  C_9
REMARK    3  A    between atoms: C_7  and  N_12
REMARK    4  A    between atoms: C_13  and  C_15
REMARK    5  A    between atoms: C_17  and  C_21
REMARK    6  A    between atoms: C_22  and  C_27
REMARK                            x       y       z     vdW  Elec       q    Type
REMARK                         _______ _______ _______ _____ _____    ______ ____
ROOT
ATOM      1  C   UNL     1       4.621  -3.530  -2.398  0.00  0.00    +0.102 A 
ATOM      2  C   UNL     1       5.662  -4.143  -3.038  0.00  0.00    +0.042 A 
ATOM      3  C   UNL     1       5.118  -5.205  -3.787  0.00  0.00    +0.021 A 
ATOM      4  C   UNL     1       3.768  -5.202  -3.579  0.00  0.00    +0.093 A 
ATOM      5  N   UNL     1       3.464  -4.195  -2.735  0.00  0.00    -0.356 N 
ATOM      6  H   UNL     1       2.574  -3.973  -2.419  0.00  0.00    +0.165 HD
ENDROOT
BRANCH   3   7
ATOM      7  C   UNL     1       5.873  -6.151  -4.645  0.00  0.00    +0.102 A 
ATOM      8  C   UNL     1       5.573  -7.523  -4.840  0.00  0.00    +0.027 A 
ATOM      9  C   UNL     1       6.505  -8.028  -5.697  0.00  0.00    +0.114 A 
ATOM     10  N   UNL     1       7.348  -7.028  -6.026  0.00  0.00    -0.284 N 
ATOM     11  N   UNL     1       6.935  -5.865  -5.364  0.00  0.00    -0.173 NA
ATOM     12  H   UNL     1       8.110  -7.102  -6.622  0.00  0.00    +0.188 HD
BRANCH   8  13
ATOM     13  C   UNL     1       4.451  -8.272  -4.223  0.00  0.00    -0.013 A 
ATOM     14  C   UNL     1       4.231  -8.197  -2.849  0.00  0.00    +0.009 A 
ATOM     15  C   UNL     1       3.186  -8.895  -2.279  0.00  0.00    +0.002 A 
ATOM     16  C   UNL     1       2.356  -9.668  -3.070  0.00  0.00    +0.020 A 
ATOM     17  C   UNL     1       2.568  -9.747  -4.436  0.00  0.00    +0.042 A 
ATOM     18  C   UNL     1       3.609  -9.048  -5.016  0.00  0.00    +0.028 A 
ATOM     19 CL   UNL     1       1.523 -10.722  -5.421  0.00  0.00    -0.084 Cl
ENDBRANCH   8  13
ENDBRANCH   3   7
BRANCH   1  21
ATOM     20  N   UNL     1       3.611  -1.865  -0.930  0.00  0.00    -0.295 N 
ATOM     21  C   UNL     1       4.721  -2.370  -1.504  0.00  0.00    +0.261 C 
ATOM     22  O   UNL     1       5.806  -1.866  -1.281  0.00  0.00    -0.269 OA
ATOM     23  H   UNL     1       2.747  -2.267  -1.108  0.00  0.00    +0.150 HD
BRANCH  20  24
ATOM     24  C   UNL     1       3.711  -0.707  -0.038  0.00  0.00    +0.190 C 
BRANCH  24  28
ATOM     25  C   UNL     1      -0.017   1.378   0.010  0.00  0.00    +0.000 A 
ATOM     26  C   UNL     1       1.171   2.086   0.002  0.00  0.00    +0.000 A 
ATOM     27  C   UNL     1       2.377   1.411  -0.013  0.00  0.00    +0.006 A 
ATOM     28  C   UNL     1       2.396   0.029  -0.020  0.00  0.00    -0.018 A 
ATOM     29  C   UNL     1       1.208  -0.679  -0.012  0.00  0.00    +0.006 A 
ATOM     30  C   UNL     1       0.002  -0.004   0.002  0.00  0.00    +0.000 A 
ENDBRANCH  24  28
BRANCH  24  31
ATOM     31  C   UNL     1       4.044  -1.175   1.356  0.00  0.00    +0.235 C 
ATOM     32  O   UNL     1       4.184  -2.358   1.581  0.00  0.00    -0.274 OA
ATOM     33  N   UNL     1       4.186  -0.278   2.352  0.00  0.00    -0.328 N 
ATOM     34  H   UNL     1       4.074   0.669   2.172  0.00  0.00    +0.145 HD
ATOM     35  H   UNL     1       4.400  -0.579   3.249  0.00  0.00    +0.145 HD
ENDBRANCH  24  31
ENDBRANCH  20  24
ENDBRANCH   1  21
TORSDOF 6
