REMARK  Name = CHEMBL397332
REMARK  3 active torsions:
REMARK  status: ('A' for Active; 'I' for Inactive)
REMARK    1  A    between atoms: C_1  and  C_2
REMARK    2  A    between atoms: C_11  and  C_17
REMARK    3  A    between atoms: C_22  and  C_25
REMARK                            x       y       z     vdW  Elec       q    Type
REMARK                         _______ _______ _______ _____ _____    ______ ____
ROOT
ATOM      1  C   UNL     1      -0.019   1.526   0.010  0.00  0.00    +0.014 C 
ATOM      2  C   UNL     1       0.002  -0.004   0.002  0.00  0.00    +0.036 C 
ATOM      3  C   UNL     1       0.730  -0.499  -1.248  0.00  0.00    +0.112 C 
ATOM      4  N   UNL     1       2.172  -0.305  -1.168  0.00  0.00    -0.310 N 
ATOM      5  C   UNL     1       2.867  -0.487  -0.022  0.00  0.00    +0.261 C 
ATOM      6  O   UNL     1       4.083  -0.448  -0.003  0.00  0.00    -0.269 OA
ATOM      7  C   UNL     1       2.085  -0.734   1.203  0.00  0.00    +0.106 A 
ATOM      8  C   UNL     1       0.730  -0.505   1.222  0.00  0.00    -0.006 A 
ATOM      9  C   UNL     1       0.269  -0.820   2.500  0.00  0.00    +0.005 A 
ATOM     10  C   UNL     1      -1.004  -0.776   3.080  0.00  0.00    +0.023 A 
ATOM     11  C   UNL     1      -1.101  -1.173   4.415  0.00  0.00    +0.038 A 
ATOM     12  C   UNL     1       0.021  -1.595   5.140  0.00  0.00    +0.015 A 
ATOM     13  C   UNL     1       1.272  -1.641   4.586  0.00  0.00    +0.027 A 
ATOM     14  C   UNL     1       1.400  -1.250   3.252  0.00  0.00    +0.047 A 
ATOM     15  N   UNL     1       2.489  -1.186   2.435  0.00  0.00    -0.350 N 
ATOM     16  H   UNL     1       3.397  -1.421   2.682  0.00  0.00    +0.166 HD
ATOM     17  H   UNL     1       2.652  -0.035  -1.966  0.00  0.00    +0.149 HD
ENDROOT
BRANCH  11  18
ATOM     18  C   UNL     1      -2.419  -1.148   5.079  0.00  0.00    +0.250 C 
ATOM     19  O   UNL     1      -3.402  -0.784   4.464  0.00  0.00    -0.270 OA
ATOM     20  N   UNL     1      -2.531  -1.527   6.368  0.00  0.00    -0.261 N 
ATOM     21  C   UNL     1      -3.771  -1.504   6.992  0.00  0.00    +0.165 A 
ATOM     22  N   UNL     1      -4.082  -1.827   8.231  0.00  0.00    -0.220 NA
ATOM     23  C   UNL     1      -5.359  -1.721   8.611  0.00  0.00    +0.134 A 
ATOM     24  C   UNL     1      -6.285  -1.285   7.706  0.00  0.00    +0.081 A 
ATOM     25  S   UNL     1      -5.354  -1.019   6.330  0.00  0.00    -0.060 S 
ATOM     26  H   UNL     1      -1.746  -1.817   6.858  0.00  0.00    +0.157 HD
BRANCH  23  27
ATOM     27  C   UNL     1      -5.761  -2.070   9.984  0.00  0.00    +0.260 C 
ATOM     28  O   UNL     1      -6.926  -1.971  10.320  0.00  0.00    -0.269 OA
ATOM     29  N   UNL     1      -4.839  -2.500  10.868  0.00  0.00    -0.324 N 
ATOM     30  H   UNL     1      -3.910  -2.579  10.600  0.00  0.00    +0.145 HD
ATOM     31  H   UNL     1      -5.104  -2.730  11.772  0.00  0.00    +0.145 HD
ENDBRANCH  23  27
ENDBRANCH  11  18
TORSDOF 2
