REMARK  Name = CHEMBL219988
REMARK  7 active torsions:
REMARK  status: ('A' for Active; 'I' for Inactive)
REMARK    1  A    between atoms: C_5  and  CA_7
REMARK    2  A    between atoms: CA_7  and  C_8
REMARK    3  A    between atoms: CA_7  and  N_10
REMARK    4  A    between atoms: C_8  and  O_9
REMARK    5  A    between atoms: C_11  and  CA_13
REMARK    6  A    between atoms: C_15  and  C_19
REMARK    7  A    between atoms: C_20  and  C_25
REMARK                            x       y       z     vdW  Elec       q    Type
REMARK                         _______ _______ _______ _____ _____    ______ ____
ROOT
ATOM      1  CA  UNL     1      -1.200  -4.349   1.922  0.00  0.00    +0.102 A 
ATOM      2  C   UNL     1      -1.343  -5.502   2.640  0.00  0.00    +0.042 A 
ATOM      3  C   UNL     1      -2.719  -5.653   2.913  0.00  0.00    +0.018 A 
ATOM      4  C   UNL     1      -3.367  -4.577   2.346  0.00  0.00    +0.093 A 
ATOM      5  N   UNL     1      -2.447  -3.789   1.754  0.00  0.00    -0.356 N 
ATOM      6  H   UNL     1      -2.633  -2.962   1.283  0.00  0.00    +0.165 HD
ENDROOT
BRANCH   3   7
ATOM      7  C   UNL     1      -3.347  -6.759   3.667  0.00  0.00    +0.075 A 
ATOM      8  C   UNL     1      -3.095  -8.114   3.507  0.00  0.00    +0.027 A 
ATOM      9  C   UNL     1      -3.910  -8.801   4.426  0.00  0.00    +0.143 A 
ATOM     10  N   UNL     1      -4.609  -7.926   5.097  0.00  0.00    -0.181 NA
ATOM     11  N   UNL     1      -4.279  -6.640   4.654  0.00  0.00    -0.276 N 
ATOM     12  H   UNL     1      -4.650  -5.809   4.989  0.00  0.00    +0.189 HD
BRANCH   8  13
ATOM     13  C   UNL     1      -2.145  -8.725   2.547  0.00  0.00    -0.013 A 
ATOM     14  C   UNL     1      -2.250  -8.445   1.185  0.00  0.00    +0.009 A 
ATOM     15  C   UNL     1      -1.363  -9.015   0.296  0.00  0.00    +0.002 A 
ATOM     16  C   UNL     1      -0.370  -9.864   0.752  0.00  0.00    +0.020 A 
ATOM     17  C   UNL     1      -0.260 -10.145   2.103  0.00  0.00    +0.042 A 
ATOM     18  C   UNL     1      -1.140  -9.575   3.003  0.00  0.00    +0.028 A 
ATOM     19 CL   UNL     1       0.988 -11.212   2.668  0.00  0.00    -0.084 Cl
ENDBRANCH   8  13
ENDBRANCH   3   7
BRANCH   1  21
ATOM     20  N   UNL     1       0.068  -2.643   0.727  0.00  0.00    -0.301 N 
ATOM     21  C   UNL     1       0.064  -3.798   1.421  0.00  0.00    +0.261 C 
ATOM     22  O   UNL     1       1.109  -4.385   1.633  0.00  0.00    -0.269 OA
ATOM     23  H   UNL     1      -0.765  -2.176   0.558  0.00  0.00    +0.150 HD
BRANCH  20  24
ATOM     24  CA  UNL     1       1.331  -2.093   0.227  0.00  0.00    +0.132 C 
BRANCH  24  29
ATOM     25  C   UNL     1      -0.092   1.389  -0.087  0.00  0.00    +0.000 A 
ATOM     26  C   UNL     1       1.048   2.165   0.020  0.00  0.00    +0.003 A 
ATOM     27  C   UNL     1       2.279   1.564   0.194  0.00  0.00    +0.039 A 
ATOM     28  C   UNL     1       2.373   0.184   0.261  0.00  0.00    +0.128 A 
ATOM     29  C   UNL     1       1.231  -0.592   0.154  0.00  0.00    +0.010 A 
ATOM     30  C   UNL     1      -0.000   0.012  -0.020  0.00  0.00    +0.008 A 
ATOM     31  F   UNL     1       3.577  -0.404   0.431  0.00  0.00    -0.205 F 
ENDBRANCH  24  29
BRANCH  24  32
ATOM     32  C   UNL     1       1.614  -2.654  -1.168  0.00  0.00    +0.183 C 
BRANCH  32  33
ATOM     33  O   UNL     1       0.615  -2.193  -2.079  0.00  0.00    -0.393 OA
ATOM     34  H   UNL     1       0.731  -2.510  -2.985  0.00  0.00    +0.209 HD
ENDBRANCH  32  33
ENDBRANCH  24  32
ENDBRANCH  20  24
ENDBRANCH   1  21
TORSDOF 7
