REMARK  Name = CHEMBL80837
REMARK  7 active torsions:
REMARK  status: ('A' for Active; 'I' for Inactive)
REMARK    1  A    between atoms: C_1  and  C_2
REMARK    2  A    between atoms: C_6  and  O_20
REMARK    3  A    between atoms: C_12  and  C_13
REMARK    4  A    between atoms: C_13  and  C_14
REMARK    5  A    between atoms: O_20  and  C_21
REMARK    6  A    between atoms: N_23  and  C_24
REMARK    7  A    between atoms: N_23  and  C_25
REMARK                            x       y       z     vdW  Elec       q    Type
REMARK                         _______ _______ _______ _____ _____    ______ ____
ROOT
ATOM      1  C   UNL     1      -0.188   1.467  -0.044  0.00  0.00    +0.045 C 
ATOM      2  C   UNL     1      -0.191  -0.040  -0.009  0.00  0.00    -0.029 A 
ATOM      3  C   UNL     1      -0.368  -0.821  -1.235  0.00  0.00    +0.022 A 
ATOM      4  C   UNL     1      -0.540  -0.189  -2.473  0.00  0.00    +0.035 A 
ATOM      5  C   UNL     1      -0.703  -0.941  -3.601  0.00  0.00    +0.084 A 
ATOM      6  C   UNL     1      -0.699  -2.333  -3.528  0.00  0.00    +0.155 A 
ATOM      7  C   UNL     1      -0.530  -2.974  -2.312  0.00  0.00    +0.095 A 
ATOM      8  C   UNL     1      -0.363  -2.225  -1.156  0.00  0.00    +0.143 A 
ATOM      9  O   UNL     1      -0.197  -2.830   0.040  0.00  0.00    -0.422 OA
ATOM     10  C   UNL     1      -0.034  -2.121   1.167  0.00  0.00    +0.341 A 
ATOM     11  O   UNL     1       0.113  -2.710   2.223  0.00  0.00    -0.245 OA
ATOM     12  C   UNL     1      -0.022  -0.711   1.160  0.00  0.00    +0.045 A 
ATOM     13 CL   UNL     1      -0.917  -0.158  -5.136  0.00  0.00    -0.080 Cl
ENDROOT
BRANCH  12  14
ATOM     14  C   UNL     1       0.170   0.050   2.447  0.00  0.00    +0.077 C 
BRANCH  14  15
ATOM     15  C   UNL     1       1.643   0.185   2.735  0.00  0.00    -0.043 A 
ATOM     16  C   UNL     1       2.278  -0.744   3.538  0.00  0.00    +0.004 A 
ATOM     17  C   UNL     1       3.629  -0.621   3.803  0.00  0.00    +0.000 A 
ATOM     18  C   UNL     1       4.346   0.432   3.264  0.00  0.00    +0.000 A 
ATOM     19  C   UNL     1       3.711   1.360   2.460  0.00  0.00    +0.000 A 
ATOM     20  C   UNL     1       2.360   1.234   2.192  0.00  0.00    +0.004 A 
ENDBRANCH  14  15
ENDBRANCH  12  14
BRANCH   6  21
ATOM     21  O   UNL     1      -0.863  -3.068  -4.659  0.00  0.00    -0.410 OA
BRANCH  21  22
ATOM     22  C   UNL     1       0.229  -3.340  -5.400  0.00  0.00    +0.408 C 
ATOM     23  O   UNL     1       1.329  -3.013  -5.003  0.00  0.00    -0.226 OA
ATOM     24  N   UNL     1       0.100  -3.974  -6.582  0.00  0.00    -0.273 N 
ATOM     25  C   UNL     1       1.287  -4.270  -7.388  0.00  0.00    +0.135 C 
ATOM     26  C   UNL     1      -1.228  -4.368  -7.061  0.00  0.00    +0.135 C 
ENDBRANCH  21  22
ENDBRANCH   6  21
TORSDOF 4
