REMARK  Name = CHEMBL374876
REMARK  3 active torsions:
REMARK  status: ('A' for Active; 'I' for Inactive)
REMARK    1  A    between atoms: C_3  and  C_8
REMARK    2  A    between atoms: C_13  and  C_14
REMARK    3  A    between atoms: C_16  and  C_20
REMARK                            x       y       z     vdW  Elec       q    Type
REMARK                         _______ _______ _______ _____ _____    ______ ____
ROOT
ATOM      1  C   UNL     1       4.763   1.039   2.017  0.00  0.00    +0.018 A 
ATOM      2  C   UNL     1       5.326   1.303   3.284  0.00  0.00    +0.042 A 
ATOM      3  C   UNL     1       4.919   0.303   4.120  0.00  0.00    +0.103 A 
ATOM      4  N   UNL     1       4.126  -0.564   3.402  0.00  0.00    -0.356 N 
ATOM      5  H   UNL     1       3.704  -1.363   3.754  0.00  0.00    +0.165 HD
ATOM      6  C   UNL     1       4.025  -0.120   2.133  0.00  0.00    +0.093 A 
ENDROOT
BRANCH   3   7
ATOM      7  C   UNL     1       5.269   0.173   5.539  0.00  0.00    +0.263 C 
ATOM      8  O   UNL     1       5.569   1.161   6.184  0.00  0.00    -0.268 OA
ATOM      9  N   UNL     1       5.257  -1.039   6.129  0.00  0.00    -0.292 N 
ATOM     10  C   UNL     1       4.883  -2.245   5.373  0.00  0.00    +0.136 C 
ATOM     11  C   UNL     1       5.966  -3.307   5.590  0.00  0.00    +0.179 C 
ATOM     12  O   UNL     1       6.183  -3.478   6.993  0.00  0.00    -0.377 OA
ATOM     13  C   UNL     1       6.667  -2.309   7.658  0.00  0.00    +0.179 C 
ATOM     14  C   UNL     1       5.624  -1.196   7.545  0.00  0.00    +0.136 C 
ENDBRANCH   3   7
BRANCH   1  20
ATOM     15  C   UNL     1       3.927   2.239  -0.084  0.00  0.00    +0.027 A 
ATOM     16  C   UNL     1       4.531   3.007  -1.096  0.00  0.00    +0.143 A 
ATOM     17  N   UNL     1       5.812   3.080  -0.853  0.00  0.00    -0.181 NA
ATOM     18  N   UNL     1       6.097   2.370   0.319  0.00  0.00    -0.276 N 
ATOM     19  H   UNL     1       6.973   2.265   0.722  0.00  0.00    +0.189 HD
ATOM     20  C   UNL     1       4.930   1.855   0.795  0.00  0.00    +0.075 A 
BRANCH  15  23
ATOM     21  C   UNL     1       0.457   1.852   1.309  0.00  0.00    +0.002 A 
ATOM     22  C   UNL     1       1.798   2.163   1.211  0.00  0.00    +0.009 A 
ATOM     23  C   UNL     1       2.487   1.906   0.026  0.00  0.00    -0.013 A 
ATOM     24  C   UNL     1       1.815   1.336  -1.054  0.00  0.00    +0.028 A 
ATOM     25  C   UNL     1       0.473   1.029  -0.945  0.00  0.00    +0.042 A 
ATOM     26  C   UNL     1      -0.205   1.287   0.234  0.00  0.00    +0.020 A 
ATOM     27 CL   UNL     1      -0.365   0.320  -2.290  0.00  0.00    -0.084 Cl
ENDBRANCH  15  23
ENDBRANCH   1  20
TORSDOF 3
