REMARK  Name = CHEMBL375525
REMARK  6 active torsions:
REMARK  status: ('A' for Active; 'I' for Inactive)
REMARK    1  A    between atoms: C_1  and  C_2
REMARK    2  A    between atoms: C_2  and  N_3
REMARK    3  A    between atoms: N_3  and  C_4
REMARK    4  A    between atoms: C_5  and  C_7
REMARK    5  A    between atoms: C_9  and  C_13
REMARK    6  A    between atoms: C_14  and  C_19
REMARK                            x       y       z     vdW  Elec       q    Type
REMARK                         _______ _______ _______ _____ _____    ______ ____
ROOT
ATOM      1  C   UNL     1       5.881  -3.523   4.428  0.00  0.00    +0.075 A 
ATOM      2  C   UNL     1       6.618  -4.541   3.840  0.00  0.00    +0.027 A 
ATOM      3  C   UNL     1       7.551  -4.986   4.794  0.00  0.00    +0.143 A 
ATOM      4  N   UNL     1       7.393  -4.288   5.886  0.00  0.00    -0.181 NA
ATOM      5  N   UNL     1       6.363  -3.361   5.692  0.00  0.00    -0.276 N 
ATOM      6  H   UNL     1       6.045  -2.717   6.344  0.00  0.00    +0.189 HD
ENDROOT
BRANCH   2   7
ATOM      7  C   UNL     1       6.452  -5.064   2.463  0.00  0.00    -0.013 A 
ATOM      8  C   UNL     1       5.191  -5.446   2.006  0.00  0.00    +0.009 A 
ATOM      9  C   UNL     1       5.042  -5.931   0.723  0.00  0.00    +0.002 A 
ATOM     10  C   UNL     1       6.140  -6.039  -0.111  0.00  0.00    +0.020 A 
ATOM     11  C   UNL     1       7.395  -5.662   0.336  0.00  0.00    +0.042 A 
ATOM     12  C   UNL     1       7.555  -5.169   1.617  0.00  0.00    +0.028 A 
ATOM     13 CL   UNL     1       8.768  -5.801  -0.716  0.00  0.00    -0.084 Cl
ENDBRANCH   2   7
BRANCH   1  16
ATOM     14  C   UNL     1       3.591  -1.564   2.335  0.00  0.00    +0.103 A 
ATOM     15  C   UNL     1       4.798  -2.178   2.513  0.00  0.00    +0.042 A 
ATOM     16  C   UNL     1       4.785  -2.755   3.800  0.00  0.00    +0.018 A 
ATOM     17  C   UNL     1       3.559  -2.468   4.362  0.00  0.00    +0.093 A 
ATOM     18  N   UNL     1       2.844  -1.745   3.478  0.00  0.00    -0.356 N 
ATOM     19  H   UNL     1       1.946  -1.408   3.622  0.00  0.00    +0.165 HD
BRANCH  14  22
ATOM     20  N   UNL     1       2.000  -0.156   1.138  0.00  0.00    -0.300 N 
ATOM     21  C   UNL     1       1.219  -0.044   2.372  0.00  0.00    +0.132 C 
ATOM     22  C   UNL     1       3.165  -0.834   1.136  0.00  0.00    +0.263 C 
ATOM     23  O   UNL     1       3.864  -0.839   0.140  0.00  0.00    -0.268 OA
BRANCH  20  25
ATOM     24  C   UNL     1       2.050   1.898  -0.189  0.00  0.00    +0.024 C 
ATOM     25  C   UNL     1       1.514   0.468  -0.095  0.00  0.00    +0.104 C 
ENDBRANCH  20  25
ENDBRANCH  14  22
ENDBRANCH   1  16
TORSDOF 4
