REMARK  Name = CHEMBL219683
REMARK  5 active torsions:
REMARK  status: ('A' for Active; 'I' for Inactive)
REMARK    1  A    between atoms: C_3  and  C_8
REMARK    2  A    between atoms: C_13  and  C_14
REMARK    3  A    between atoms: C_16  and  C_20
REMARK    4  A    between atoms: N_22  and  C_23
REMARK    5  A    between atoms: C_23  and  C_24
REMARK                            x       y       z     vdW  Elec       q    Type
REMARK                         _______ _______ _______ _____ _____    ______ ____
ROOT
ATOM      1  C   UNL     1       4.851   0.941   1.920  0.00  0.00    +0.021 A 
ATOM      2  C   UNL     1       6.009   0.243   2.315  0.00  0.00    +0.042 A 
ATOM      3  C   UNL     1       5.646  -0.590   3.335  0.00  0.00    +0.102 A 
ATOM      4  N   UNL     1       4.300  -0.415   3.568  0.00  0.00    -0.356 N 
ATOM      5  H   UNL     1       3.779  -0.881   4.241  0.00  0.00    +0.165 HD
ATOM      6  C   UNL     1       3.825   0.515   2.714  0.00  0.00    +0.093 A 
ENDROOT
BRANCH   1  12
ATOM      7  C   UNL     1       3.660   2.166  -0.022  0.00  0.00    +0.027 A 
ATOM      8  C   UNL     1       3.982   3.193  -0.858  0.00  0.00    +0.114 A 
ATOM      9  N   UNL     1       5.226   3.607  -0.543  0.00  0.00    -0.284 N 
ATOM     10  N   UNL     1       5.698   2.823   0.516  0.00  0.00    -0.173 NA
ATOM     11  H   UNL     1       5.711   4.327  -0.977  0.00  0.00    +0.188 HD
ATOM     12  C   UNL     1       4.764   1.958   0.842  0.00  0.00    +0.102 A 
BRANCH   7  15
ATOM     13  C   UNL     1      -0.017   1.379   0.010  0.00  0.00    +0.002 A 
ATOM     14  C   UNL     1       1.168   2.088   0.002  0.00  0.00    +0.009 A 
ATOM     15  C   UNL     1       2.384   1.409  -0.013  0.00  0.00    -0.013 A 
ATOM     16  C   UNL     1       2.398   0.015  -0.021  0.00  0.00    +0.028 A 
ATOM     17  C   UNL     1       1.208  -0.685  -0.013  0.00  0.00    +0.042 A 
ATOM     18  C   UNL     1       0.002  -0.004   0.002  0.00  0.00    +0.020 A 
ATOM     19 CL   UNL     1       1.223  -2.421  -0.023  0.00  0.00    -0.084 Cl
ENDBRANCH   7  15
ENDBRANCH   1  12
BRANCH   3  20
ATOM     20  C   UNL     1       6.534  -1.510   4.056  0.00  0.00    +0.260 C 
ATOM     21  O   UNL     1       7.711  -1.577   3.757  0.00  0.00    -0.269 OA
ATOM     22  N   UNL     1       6.045  -2.280   5.048  0.00  0.00    -0.308 N 
ATOM     23  H   UNL     1       5.106  -2.226   5.286  0.00  0.00    +0.149 HD
BRANCH  22  24
ATOM     24  C   UNL     1       6.931  -3.199   5.767  0.00  0.00    +0.136 C 
BRANCH  24  25
ATOM     25  C   UNL     1       6.131  -3.948   6.835  0.00  0.00    +0.135 C 
ATOM     26  C   UNL     1       7.078  -4.833   7.673  0.00  0.00    +0.035 C 
ATOM     27  C   UNL     1       6.229  -6.116   7.884  0.00  0.00    +0.031 C 
ATOM     28  C   UNL     1       5.453  -6.179   6.545  0.00  0.00    +0.160 C 
ATOM     29  O   UNL     1       5.174  -4.811   6.208  0.00  0.00    -0.375 OA
ENDBRANCH  24  25
ENDBRANCH  22  24
ENDBRANCH   3  20
TORSDOF 5
