REMARK  Name = CHEMBL565460
REMARK  9 active torsions:
REMARK  status: ('A' for Active; 'I' for Inactive)
REMARK    1  A    between atoms: C_1  and  C_2
REMARK    2  A    between atoms: C_6  and  CA_8
REMARK    3  A    between atoms: CA_8  and  C_10
REMARK    4  A    between atoms: CA_8  and  N_12
REMARK    5  A    between atoms: C_10  and  O_11
REMARK    6  A    between atoms: C_13  and  CA_15
REMARK    7  A    between atoms: C_17  and  C_21
REMARK    8  A    between atoms: C_22  and  C_34
REMARK    9  A    between atoms: N_27  and  C_28
REMARK                            x       y       z     vdW  Elec       q    Type
REMARK                         _______ _______ _______ _____ _____    ______ ____
ROOT
ATOM      1  CA  UNL     1       3.003  -5.475   2.933  0.00  0.00    +0.102 A 
ATOM      2  C   UNL     1       3.511  -6.065   4.055  0.00  0.00    +0.042 A 
ATOM      3  C   UNL     1       4.071  -7.296   3.658  0.00  0.00    +0.019 A 
ATOM      4  C   UNL     1       3.880  -7.411   2.298  0.00  0.00    +0.093 A 
ATOM      5  N   UNL     1       3.230  -6.314   1.865  0.00  0.00    -0.356 N 
ATOM      6  H   UNL     1       2.967  -6.141   0.948  0.00  0.00    +0.165 HD
ENDROOT
BRANCH   3   7
ATOM      7  C   UNL     1       4.739  -8.283   4.538  0.00  0.00    +0.080 A 
ATOM      8  C   UNL     1       4.617  -9.654   4.290  0.00  0.00    -0.006 A 
ATOM      9  C   UNL     1       5.258 -10.537   5.138  0.00  0.00    +0.120 A 
ATOM     10  N   UNL     1       5.966 -10.062   6.153  0.00  0.00    -0.222 NA
ATOM     11  C   UNL     1       6.065  -8.758   6.364  0.00  0.00    +0.220 A 
ATOM     12  N   UNL     1       5.471  -7.878   5.574  0.00  0.00    -0.214 NA
ATOM     13  N   UNL     1       6.815  -8.304   7.437  0.00  0.00    -0.284 N 
ATOM     14  C   UNL     1       3.803 -10.157   3.126  0.00  0.00    +0.047 C 
ATOM     15  H   UNL     1       6.831  -7.358   7.652  0.00  0.00    +0.155 HD
BRANCH  13  16
ATOM     16  C   UNL     1       7.548  -9.209   8.211  0.00  0.00    +0.034 A 
ATOM     17  C   UNL     1       8.212 -10.267   7.602  0.00  0.00    +0.023 A 
ATOM     18  C   UNL     1       8.936 -11.158   8.369  0.00  0.00    +0.002 A 
ATOM     19  C   UNL     1       9.000 -10.999   9.741  0.00  0.00    +0.000 A 
ATOM     20  C   UNL     1       8.340  -9.948  10.350  0.00  0.00    +0.002 A 
ATOM     21  C   UNL     1       7.620  -9.049   9.589  0.00  0.00    +0.023 A 
ENDBRANCH  13  16
ENDBRANCH   3   7
BRANCH   1  23
ATOM     22  N   UNL     1       1.861  -3.707   1.701  0.00  0.00    -0.301 N 
ATOM     23  C   UNL     1       2.324  -4.175   2.877  0.00  0.00    +0.261 C 
ATOM     24  O   UNL     1       2.180  -3.520   3.892  0.00  0.00    -0.269 OA
ATOM     25  H   UNL     1       1.976  -4.230   0.892  0.00  0.00    +0.150 HD
BRANCH  22  26
ATOM     26  CA  UNL     1       1.184  -2.409   1.644  0.00  0.00    +0.129 C 
BRANCH  26  32
ATOM     27  C   UNL     1       1.918   1.515  -1.373  0.00  0.00    +0.044 C 
ATOM     28  C   UNL     1       1.662   0.042  -1.187  0.00  0.00    -0.050 A 
ATOM     29  C   UNL     1       1.544  -0.784  -2.290  0.00  0.00    +0.003 A 
ATOM     30  C   UNL     1       1.310  -2.135  -2.119  0.00  0.00    +0.001 A 
ATOM     31  C   UNL     1       1.193  -2.662  -0.846  0.00  0.00    +0.005 A 
ATOM     32  C   UNL     1       1.312  -1.836   0.257  0.00  0.00    -0.025 A 
ATOM     33  C   UNL     1       1.551  -0.485   0.086  0.00  0.00    +0.009 A 
ENDBRANCH  26  32
BRANCH  26  34
ATOM     34  C   UNL     1      -0.296  -2.591   1.987  0.00  0.00    +0.182 C 
BRANCH  34  35
ATOM     35  O   UNL     1      -0.923  -3.388   0.982  0.00  0.00    -0.393 OA
ATOM     36  H   UNL     1      -1.865  -3.545   1.135  0.00  0.00    +0.209 HD
ENDBRANCH  34  35
ENDBRANCH  26  34
ENDBRANCH  22  26
ENDBRANCH   1  23
TORSDOF 7
