REMARK  Name = CHEMBL219988
REMARK  7 active torsions:
REMARK  status: ('A' for Active; 'I' for Inactive)
REMARK    1  A    between atoms: C_5  and  CA_7
REMARK    2  A    between atoms: CA_7  and  C_8
REMARK    3  A    between atoms: CA_7  and  N_10
REMARK    4  A    between atoms: C_8  and  O_9
REMARK    5  A    between atoms: C_11  and  CA_13
REMARK    6  A    between atoms: C_15  and  C_19
REMARK    7  A    between atoms: C_20  and  C_25
REMARK                            x       y       z     vdW  Elec       q    Type
REMARK                         _______ _______ _______ _____ _____    ______ ____
ROOT
ATOM      1  CA  UNL     1      -0.932  -5.030  -1.425  0.00  0.00    +0.102 A 
ATOM      2  C   UNL     1      -1.233  -6.099  -2.220  0.00  0.00    +0.042 A 
ATOM      3  C   UNL     1      -2.611  -6.025  -2.511  0.00  0.00    +0.018 A 
ATOM      4  C   UNL     1      -3.102  -4.904  -1.877  0.00  0.00    +0.093 A 
ATOM      5  N   UNL     1      -2.087  -4.310  -1.218  0.00  0.00    -0.356 N 
ATOM      6  H   UNL     1      -2.158  -3.502  -0.685  0.00  0.00    +0.165 HD
ENDROOT
BRANCH   3   7
ATOM      7  C   UNL     1      -3.385  -6.973  -3.342  0.00  0.00    +0.075 A 
ATOM      8  C   UNL     1      -3.014  -7.479  -4.580  0.00  0.00    +0.027 A 
ATOM      9  C   UNL     1      -4.042  -8.340  -5.004  0.00  0.00    +0.143 A 
ATOM     10  N   UNL     1      -4.973  -8.358  -4.088  0.00  0.00    -0.181 NA
ATOM     11  N   UNL     1      -4.593  -7.520  -3.034  0.00  0.00    -0.276 N 
ATOM     12  H   UNL     1      -5.103  -7.356  -2.225  0.00  0.00    +0.189 HD
BRANCH   8  13
ATOM     13  C   UNL     1      -1.767  -7.168  -5.319  0.00  0.00    -0.013 A 
ATOM     14  C   UNL     1      -1.434  -5.845  -5.605  0.00  0.00    +0.009 A 
ATOM     15  C   UNL     1      -0.272  -5.561  -6.292  0.00  0.00    +0.002 A 
ATOM     16  C   UNL     1       0.564  -6.586  -6.698  0.00  0.00    +0.020 A 
ATOM     17  C   UNL     1       0.239  -7.902  -6.417  0.00  0.00    +0.042 A 
ATOM     18  C   UNL     1      -0.919  -8.197  -5.724  0.00  0.00    +0.028 A 
ATOM     19 CL   UNL     1       1.292  -9.183  -6.930  0.00  0.00    -0.084 Cl
ENDBRANCH   8  13
ENDBRANCH   3   7
BRANCH   1  21
ATOM     20  N   UNL     1       0.554  -3.621  -0.101  0.00  0.00    -0.301 N 
ATOM     21  C   UNL     1       0.392  -4.708  -0.881  0.00  0.00    +0.261 C 
ATOM     22  O   UNL     1       1.344  -5.423  -1.134  0.00  0.00    -0.269 OA
ATOM     23  H   UNL     1      -0.205  -3.052   0.101  0.00  0.00    +0.150 HD
BRANCH  20  24
ATOM     24  CA  UNL     1       1.876  -3.300   0.442  0.00  0.00    +0.132 C 
BRANCH  24  29
ATOM     25  C   UNL     1       0.877   0.254   1.232  0.00  0.00    +0.000 A 
ATOM     26  C   UNL     1       2.104   0.890   1.249  0.00  0.00    +0.003 A 
ATOM     27  C   UNL     1       3.259   0.171   1.005  0.00  0.00    +0.039 A 
ATOM     28  C   UNL     1       3.186  -1.187   0.743  0.00  0.00    +0.128 A 
ATOM     29  C   UNL     1       1.957  -1.823   0.727  0.00  0.00    +0.010 A 
ATOM     30  C   UNL     1       0.803  -1.102   0.971  0.00  0.00    +0.008 A 
ATOM     31  F   UNL     1       4.314  -1.890   0.504  0.00  0.00    -0.205 F 
ENDBRANCH  24  29
BRANCH  24  32
ATOM     32  C   UNL     1       2.099  -4.082   1.738  0.00  0.00    +0.183 C 
BRANCH  32  33
ATOM     33  O   UNL     1       1.166  -3.641   2.727  0.00  0.00    -0.393 OA
ATOM     34  H   UNL     1       1.250  -4.095   3.577  0.00  0.00    +0.209 HD
ENDBRANCH  32  33
ENDBRANCH  24  32
ENDBRANCH  20  24
ENDBRANCH   1  21
TORSDOF 7
