REMARK  Name = CHEMBL375525
REMARK  6 active torsions:
REMARK  status: ('A' for Active; 'I' for Inactive)
REMARK    1  A    between atoms: C_1  and  C_2
REMARK    2  A    between atoms: C_2  and  N_3
REMARK    3  A    between atoms: N_3  and  C_4
REMARK    4  A    between atoms: C_5  and  C_7
REMARK    5  A    between atoms: C_9  and  C_13
REMARK    6  A    between atoms: C_14  and  C_19
REMARK                            x       y       z     vdW  Elec       q    Type
REMARK                         _______ _______ _______ _____ _____    ______ ____
ROOT
ATOM      1  C   UNL     1      -6.012  -3.508   2.924  0.00  0.00    +0.102 A 
ATOM      2  C   UNL     1      -7.393  -3.648   2.637  0.00  0.00    +0.027 A 
ATOM      3  C   UNL     1      -7.971  -4.273   3.701  0.00  0.00    +0.114 A 
ATOM      4  N   UNL     1      -7.007  -4.515   4.612  0.00  0.00    -0.284 N 
ATOM      5  N   UNL     1      -5.792  -4.036   4.107  0.00  0.00    -0.173 NA
ATOM      6  H   UNL     1      -7.133  -4.950   5.469  0.00  0.00    +0.188 HD
ENDROOT
BRANCH   2   7
ATOM      7  C   UNL     1      -8.083  -3.196   1.403  0.00  0.00    -0.013 A 
ATOM      8  C   UNL     1      -7.896  -1.897   0.934  0.00  0.00    +0.009 A 
ATOM      9  C   UNL     1      -8.540  -1.481  -0.214  0.00  0.00    +0.002 A 
ATOM     10  C   UNL     1      -9.370  -2.350  -0.898  0.00  0.00    +0.020 A 
ATOM     11  C   UNL     1      -9.559  -3.642  -0.437  0.00  0.00    +0.042 A 
ATOM     12  C   UNL     1      -8.915  -4.070   0.708  0.00  0.00    +0.028 A 
ATOM     13 CL   UNL     1     -10.603  -4.726  -1.302  0.00  0.00    -0.084 Cl
ENDBRANCH   2   7
BRANCH   1  16
ATOM     14  C   UNL     1      -3.211  -1.746   1.332  0.00  0.00    +0.103 A 
ATOM     15  C   UNL     1      -3.880  -2.130   2.460  0.00  0.00    +0.042 A 
ATOM     16  C   UNL     1      -4.995  -2.882   2.043  0.00  0.00    +0.021 A 
ATOM     17  C   UNL     1      -4.968  -2.932   0.678  0.00  0.00    +0.093 A 
ATOM     18  N   UNL     1      -3.894  -2.241   0.244  0.00  0.00    -0.356 N 
ATOM     19  H   UNL     1      -3.642  -2.115  -0.685  0.00  0.00    +0.165 HD
BRANCH  14  22
ATOM     20  N   UNL     1      -1.516  -0.490   0.107  0.00  0.00    -0.300 N 
ATOM     21  C   UNL     1      -2.301  -0.685  -1.114  0.00  0.00    +0.132 C 
ATOM     22  C   UNL     1      -1.984  -0.942   1.288  0.00  0.00    +0.263 C 
ATOM     23  O   UNL     1      -1.390  -0.682   2.317  0.00  0.00    -0.268 OA
BRANCH  20  25
ATOM     24  C   UNL     1      -0.431   1.697   0.246  0.00  0.00    +0.024 C 
ATOM     25  C   UNL     1      -0.223   0.195   0.046  0.00  0.00    +0.104 C 
ENDBRANCH  20  25
ENDBRANCH  14  22
ENDBRANCH   1  16
TORSDOF 4
