REMARK  Name = CHEMBL568483
REMARK  9 active torsions:
REMARK  status: ('A' for Active; 'I' for Inactive)
REMARK    1  A    between atoms: C_1  and  C_2
REMARK    2  A    between atoms: C_7  and  N_8
REMARK    3  A    between atoms: C_12  and  C_35
REMARK    4  A    between atoms: C_13  and  C_15
REMARK    5  A    between atoms: CA_17  and  C_21
REMARK    6  A    between atoms: N_23  and  CA_24
REMARK    7  A    between atoms: CA_24  and  C_26
REMARK    8  A    between atoms: CA_24  and  C_28
REMARK    9  A    between atoms: C_26  and  O_27
REMARK                            x       y       z     vdW  Elec       q    Type
REMARK                         _______ _______ _______ _____ _____    ______ ____
ROOT
ATOM      1  C   UNL     1       0.166  -0.253   7.375  0.00  0.00    +0.019 A 
ATOM      2  C   UNL     1       0.935   0.877   7.720  0.00  0.00    +0.042 A 
ATOM      3  CA  UNL     1       0.659   1.168   9.025  0.00  0.00    +0.102 A 
ATOM      4  N   UNL     1      -0.256   0.248   9.486  0.00  0.00    -0.356 N 
ATOM      5  H   UNL     1      -0.626   0.223  10.382  0.00  0.00    +0.165 HD
ATOM      6  C   UNL     1      -0.559  -0.608   8.492  0.00  0.00    +0.093 A 
ENDROOT
BRANCH   1  12
ATOM      7  N   UNL     1      -2.268  -2.237   3.774  0.00  0.00    -0.283 N 
ATOM      8  C   UNL     1      -1.046  -1.885   4.324  0.00  0.00    +0.220 A 
ATOM      9  N   UNL     1       0.066  -2.162   3.659  0.00  0.00    -0.222 NA
ATOM     10  C   UNL     1       1.253  -1.842   4.151  0.00  0.00    +0.120 A 
ATOM     11  C   UNL     1       1.328  -1.209   5.378  0.00  0.00    -0.006 A 
ATOM     12  C   UNL     1       0.139  -0.929   6.057  0.00  0.00    +0.080 A 
ATOM     13  N   UNL     1      -1.020  -1.276   5.499  0.00  0.00    -0.214 NA
ATOM     14  C   UNL     1       2.662  -0.831   5.970  0.00  0.00    +0.047 C 
ATOM     15  H   UNL     1      -3.083  -2.113   4.284  0.00  0.00    +0.155 HD
BRANCH   7  22
ATOM     16  C   UNL     1      -4.297  -4.146   3.200  0.00  0.00    +0.046 C 
ATOM     17  C   UNL     1      -3.299  -3.706   2.159  0.00  0.00    -0.028 A 
ATOM     18  C   UNL     1      -3.357  -4.228   0.882  0.00  0.00    +0.025 A 
ATOM     19  C   UNL     1      -2.441  -3.825  -0.074  0.00  0.00    +0.041 A 
ATOM     20  C   UNL     1      -1.465  -2.898   0.247  0.00  0.00    +0.022 A 
ATOM     21  C   UNL     1      -1.403  -2.373   1.523  0.00  0.00    +0.025 A 
ATOM     22  C   UNL     1      -2.325  -2.771   2.482  0.00  0.00    +0.037 A 
ATOM     23 CL   UNL     1      -2.516  -4.484  -1.678  0.00  0.00    -0.084 Cl
ENDBRANCH   7  22
ENDBRANCH   1  12
BRANCH   3  24
ATOM     24  C   UNL     1       1.237   2.271   9.802  0.00  0.00    +0.261 C 
ATOM     25  O   UNL     1       2.041   3.024   9.284  0.00  0.00    -0.269 OA
ATOM     26  N   UNL     1       0.878   2.450  11.088  0.00  0.00    -0.301 N 
ATOM     27  H   UNL     1       0.237   1.849  11.501  0.00  0.00    +0.150 HD
BRANCH  26  28
ATOM     28  CA  UNL     1       1.455   3.550  11.864  0.00  0.00    +0.129 C 
BRANCH  28  29
ATOM     29  C   UNL     1       0.515   3.925  12.981  0.00  0.00    -0.024 A 
ATOM     30  C   UNL     1      -0.150   2.938  13.684  0.00  0.00    +0.005 A 
ATOM     31  C   UNL     1      -1.012   3.280  14.709  0.00  0.00    +0.002 A 
ATOM     32  C   UNL     1      -1.210   4.610  15.030  0.00  0.00    +0.020 A 
ATOM     33  C   UNL     1      -0.545   5.598  14.326  0.00  0.00    +0.041 A 
ATOM     34  C   UNL     1       0.322   5.254  13.305  0.00  0.00    +0.025 A 
ATOM     35 CL   UNL     1      -0.794   7.268  14.729  0.00  0.00    -0.084 Cl
ENDBRANCH  28  29
BRANCH  28  36
ATOM     36  C   UNL     1       2.797   3.111  12.452  0.00  0.00    +0.182 C 
BRANCH  36  37
ATOM     37  O   UNL     1       2.582   2.057  13.394  0.00  0.00    -0.393 OA
ATOM     38  H   UNL     1       3.392   1.728  13.807  0.00  0.00    +0.209 HD
ENDBRANCH  36  37
ENDBRANCH  28  36
ENDBRANCH  26  28
ENDBRANCH   3  24
TORSDOF 7
