REMARK  Name = CHEMBL223471
REMARK  7 active torsions:
REMARK  status: ('A' for Active; 'I' for Inactive)
REMARK    1  A    between atoms: C_1  and  O_2
REMARK    2  A    between atoms: O_2  and  C_3
REMARK    3  A    between atoms: C_6  and  C_9
REMARK    4  A    between atoms: C_9  and  N_10
REMARK    5  A    between atoms: C_11  and  C_13
REMARK    6  A    between atoms: C_15  and  C_19
REMARK    7  A    between atoms: C_20  and  C_25
REMARK                            x       y       z     vdW  Elec       q    Type
REMARK                         _______ _______ _______ _____ _____    ______ ____
ROOT
ATOM      1  C   UNL     1       6.091  -3.339  -5.461  0.00  0.00    +0.102 A 
ATOM      2  C   UNL     1       7.080  -4.056  -6.072  0.00  0.00    +0.042 A 
ATOM      3  C   UNL     1       8.235  -3.935  -5.271  0.00  0.00    +0.018 A 
ATOM      4  C   UNL     1       7.902  -3.142  -4.194  0.00  0.00    +0.093 A 
ATOM      5  N   UNL     1       6.609  -2.779  -4.316  0.00  0.00    -0.356 N 
ATOM      6  H   UNL     1       6.122  -2.216  -3.694  0.00  0.00    +0.165 HD
ENDROOT
BRANCH   3   7
ATOM      7  C   UNL     1       9.555  -4.545  -5.537  0.00  0.00    +0.075 A 
ATOM      8  C   UNL     1       9.796  -5.857  -5.921  0.00  0.00    +0.027 A 
ATOM      9  C   UNL     1      11.188  -6.002  -6.063  0.00  0.00    +0.143 A 
ATOM     10  N   UNL     1      11.755  -4.859  -5.785  0.00  0.00    -0.181 NA
ATOM     11  N   UNL     1      10.765  -3.925  -5.458  0.00  0.00    -0.276 N 
ATOM     12  H   UNL     1      10.914  -2.998  -5.215  0.00  0.00    +0.189 HD
BRANCH   8  13
ATOM     13  C   UNL     1       8.776  -6.910  -6.141  0.00  0.00    -0.013 A 
ATOM     14  C   UNL     1       7.868  -7.227  -5.130  0.00  0.00    +0.009 A 
ATOM     15  C   UNL     1       6.920  -8.207  -5.340  0.00  0.00    +0.002 A 
ATOM     16  C   UNL     1       6.869  -8.877  -6.549  0.00  0.00    +0.020 A 
ATOM     17  C   UNL     1       7.767  -8.568  -7.556  0.00  0.00    +0.042 A 
ATOM     18  C   UNL     1       8.716  -7.584  -7.359  0.00  0.00    +0.028 A 
ATOM     19 CL   UNL     1       7.696  -9.413  -9.070  0.00  0.00    -0.084 Cl
ENDBRANCH   8  13
ENDBRANCH   3   7
BRANCH   1  21
ATOM     20  N   UNL     1       3.833  -2.443  -5.249  0.00  0.00    -0.306 N 
ATOM     21  C   UNL     1       4.714  -3.186  -5.947  0.00  0.00    +0.261 C 
ATOM     22  O   UNL     1       4.369  -3.731  -6.979  0.00  0.00    -0.269 OA
ATOM     23  H   UNL     1       4.108  -2.009  -4.427  0.00  0.00    +0.149 HD
BRANCH  20  24
ATOM     24  C   UNL     1       2.459  -2.290  -5.734  0.00  0.00    +0.140 C 
BRANCH  24  28
ATOM     25  C   UNL     1       0.260   0.182  -3.029  0.00  0.00    +0.120 A 
ATOM     26  C   UNL     1       0.945   0.753  -4.092  0.00  0.00    +0.046 A 
ATOM     27  C   UNL     1       1.655  -0.049  -4.965  0.00  0.00    +0.009 A 
ATOM     28  C   UNL     1       1.683  -1.419  -4.780  0.00  0.00    -0.030 A 
ATOM     29  C   UNL     1       1.001  -1.990  -3.722  0.00  0.00    +0.009 A 
ATOM     30  C   UNL     1       0.295  -1.192  -2.842  0.00  0.00    +0.046 A 
BRANCH  25  32
ATOM     31  C   UNL     1      -0.430   2.375  -2.422  0.00  0.00    +0.277 C 
ATOM     32  O   UNL     1      -0.439   0.968  -2.169  0.00  0.00    -0.495 OA
ENDBRANCH  25  32
ENDBRANCH  24  28
ENDBRANCH  20  24
ENDBRANCH   1  21
TORSDOF 6
