REMARK  Name = CHEMBL255465
REMARK  1 active torsions:
REMARK  status: ('A' for Active; 'I' for Inactive)
REMARK    1  A    between atoms: C_12  and  N_14
REMARK                            x       y       z     vdW  Elec       q    Type
REMARK                         _______ _______ _______ _____ _____    ______ ____
ROOT
ATOM      1  C   UNL     1      -0.017   1.397   0.010  0.00  0.00    +0.028 A 
ATOM      2  C   UNL     1       1.270   1.820  -0.000  0.00  0.00    +0.084 A 
ATOM      3  N   UNL     1       2.102   0.741  -0.004  0.00  0.00    -0.357 N 
ATOM      4  H   UNL     1       3.071   0.775  -0.026  0.00  0.00    +0.165 HD
ATOM      5  C   UNL     1       1.352  -0.388   0.029  0.00  0.00    +0.109 A 
ATOM      6  C   UNL     1       0.002  -0.004   0.002  0.00  0.00    +0.010 A 
ATOM      7  C   UNL     1      -1.095  -0.975  -0.079  0.00  0.00    -0.010 C 
ATOM      8  C   UNL     1      -1.996  -1.113   0.926  0.00  0.00    +0.102 C 
ATOM      9  C   UNL     1      -3.141  -2.044   0.990  0.00  0.00    +0.284 C 
ATOM     10  O   UNL     1      -3.474  -2.854   0.140  0.00  0.00    -0.267 OA
ATOM     11  N   UNL     1      -3.741  -1.821   2.167  0.00  0.00    -0.145 NA
ATOM     12  C   UNL     1      -3.113  -0.875   2.832  0.00  0.00    +0.193 C 
ATOM     13  N   UNL     1      -2.041  -0.410   2.134  0.00  0.00    -0.284 N 
ATOM     14  C   UNL     1      -1.178  -1.816  -1.338  0.00  0.00    +0.056 C 
ATOM     15  C   UNL     1       0.234  -2.236  -1.756  0.00  0.00    +0.109 C 
ATOM     16  N   UNL     1       1.052  -2.692  -0.642  0.00  0.00    -0.310 N 
ATOM     17  C   UNL     1       1.734  -1.804   0.127  0.00  0.00    +0.261 C 
ATOM     18  O   UNL     1       2.628  -2.168   0.870  0.00  0.00    -0.269 OA
ATOM     19  H   UNL     1      -1.425   0.283   2.420  0.00  0.00    +0.155 HD
ATOM     20  H   UNL     1       1.110  -3.640  -0.446  0.00  0.00    +0.149 HD
ENDROOT
BRANCH  12  21
ATOM     21  N   UNL     1      -3.486  -0.422   4.068  0.00  0.00    -0.238 NA
ATOM     22  H   UNL     1      -4.260  -0.803   4.511  0.00  0.00    +0.173 HD
ENDBRANCH  12  21
TORSDOF 1
