REMARK  Name = CHEMBL571031
REMARK  9 active torsions:
REMARK  status: ('A' for Active; 'I' for Inactive)
REMARK    1  A    between atoms: C_1  and  C_2
REMARK    2  A    between atoms: C_7  and  N_8
REMARK    3  A    between atoms: C_12  and  C_35
REMARK    4  A    between atoms: C_13  and  C_15
REMARK    5  A    between atoms: CA_17  and  C_21
REMARK    6  A    between atoms: N_23  and  CA_24
REMARK    7  A    between atoms: CA_24  and  C_26
REMARK    8  A    between atoms: CA_24  and  C_28
REMARK    9  A    between atoms: C_26  and  O_27
REMARK                            x       y       z     vdW  Elec       q    Type
REMARK                         _______ _______ _______ _____ _____    ______ ____
ROOT
ATOM      1  C   UNL     1       0.166  -0.256   7.375  0.00  0.00    +0.019 A 
ATOM      2  C   UNL     1       0.934   0.875   7.720  0.00  0.00    +0.042 A 
ATOM      3  CA  UNL     1       0.658   1.165   9.025  0.00  0.00    +0.102 A 
ATOM      4  N   UNL     1      -0.257   0.245   9.486  0.00  0.00    -0.356 N 
ATOM      5  H   UNL     1      -0.626   0.219  10.382  0.00  0.00    +0.165 HD
ATOM      6  C   UNL     1      -0.559  -0.611   8.491  0.00  0.00    +0.093 A 
ENDROOT
BRANCH   1  12
ATOM      7  N   UNL     1      -2.268  -2.239   3.773  0.00  0.00    -0.283 N 
ATOM      8  C   UNL     1      -1.046  -1.887   4.324  0.00  0.00    +0.220 A 
ATOM      9  N   UNL     1       0.066  -2.163   3.658  0.00  0.00    -0.222 NA
ATOM     10  C   UNL     1       1.253  -1.843   4.150  0.00  0.00    +0.120 A 
ATOM     11  C   UNL     1       1.328  -1.211   5.377  0.00  0.00    -0.006 A 
ATOM     12  C   UNL     1       0.138  -0.932   6.057  0.00  0.00    +0.080 A 
ATOM     13  N   UNL     1      -1.020  -1.278   5.499  0.00  0.00    -0.214 NA
ATOM     14  C   UNL     1       2.661  -0.832   5.969  0.00  0.00    +0.047 C 
ATOM     15  H   UNL     1      -3.083  -2.115   4.283  0.00  0.00    +0.155 HD
BRANCH   7  22
ATOM     16  C   UNL     1      -4.299  -4.146   3.196  0.00  0.00    +0.045 C 
ATOM     17  C   UNL     1      -3.300  -3.706   2.157  0.00  0.00    -0.029 A 
ATOM     18  C   UNL     1      -3.357  -4.227   0.879  0.00  0.00    +0.005 A 
ATOM     19  C   UNL     1      -2.441  -3.824  -0.075  0.00  0.00    +0.000 A 
ATOM     20  C   UNL     1      -1.465  -2.898   0.246  0.00  0.00    +0.002 A 
ATOM     21  C   UNL     1      -1.403  -2.373   1.522  0.00  0.00    +0.023 A 
ATOM     22  C   UNL     1      -2.325  -2.772   2.482  0.00  0.00    +0.036 A 
ENDBRANCH   7  22
ENDBRANCH   1  12
BRANCH   3  23
ATOM     23  C   UNL     1       1.236   2.268   9.802  0.00  0.00    +0.261 C 
ATOM     24  O   UNL     1       2.039   3.021   9.285  0.00  0.00    -0.269 OA
ATOM     25  N   UNL     1       0.877   2.446  11.089  0.00  0.00    -0.301 N 
ATOM     26  H   UNL     1       0.236   1.845  11.501  0.00  0.00    +0.150 HD
BRANCH  25  27
ATOM     27  CA  UNL     1       1.453   3.546  11.865  0.00  0.00    +0.129 C 
BRANCH  27  28
ATOM     28  C   UNL     1       0.513   3.920  12.982  0.00  0.00    -0.024 A 
ATOM     29  C   UNL     1      -0.151   2.932  13.685  0.00  0.00    +0.005 A 
ATOM     30  C   UNL     1      -1.013   3.274  14.710  0.00  0.00    +0.002 A 
ATOM     31  C   UNL     1      -1.212   4.604  15.032  0.00  0.00    +0.020 A 
ATOM     32  C   UNL     1      -0.548   5.592  14.329  0.00  0.00    +0.041 A 
ATOM     33  C   UNL     1       0.320   5.249  13.307  0.00  0.00    +0.025 A 
ATOM     34 CL   UNL     1      -0.797   7.262  14.732  0.00  0.00    -0.084 Cl
ENDBRANCH  27  28
BRANCH  27  35
ATOM     35  C   UNL     1       2.796   3.107  12.453  0.00  0.00    +0.182 C 
BRANCH  35  36
ATOM     36  O   UNL     1       2.581   2.053  13.394  0.00  0.00    -0.393 OA
ATOM     37  H   UNL     1       3.391   1.724  13.807  0.00  0.00    +0.209 HD
ENDBRANCH  35  36
ENDBRANCH  27  35
ENDBRANCH  25  27
ENDBRANCH   3  23
TORSDOF 7
