REMARK  Name = CHEMBL569181
REMARK  12 active torsions:
REMARK  status: ('A' for Active; 'I' for Inactive)
REMARK    1  A    between atoms: C_1  and  C_2
REMARK    2  A    between atoms: C_7  and  C_8
REMARK    3  A    between atoms: CA_10  and  C_14
REMARK    4  A    between atoms: N_16  and  CA_17
REMARK    5  A    between atoms: CA_17  and  C_19
REMARK    6  A    between atoms: CA_17  and  C_21
REMARK    7  A    between atoms: C_19  and  O_20
REMARK    8  A    between atoms: N_28  and  C_29
REMARK    9  A    between atoms: C_33  and  O_37
REMARK   10  A    between atoms: C_34  and  O_35
REMARK   11  A    between atoms: O_35  and  C_36
REMARK   12  A    between atoms: O_37  and  C_38
REMARK                            x       y       z     vdW  Elec       q    Type
REMARK                         _______ _______ _______ _____ _____    ______ ____
ROOT
ATOM      1  C   UNL     1       0.634  -0.029   2.450  0.00  0.00    +0.019 A 
ATOM      2  C   UNL     1       0.187  -0.432   3.725  0.00  0.00    +0.042 A 
ATOM      3  CA  UNL     1       0.638   0.495   4.619  0.00  0.00    +0.102 A 
ATOM      4  N   UNL     1       1.346   1.452   3.927  0.00  0.00    -0.356 N 
ATOM      5  H   UNL     1       1.777   2.227   4.320  0.00  0.00    +0.165 HD
ATOM      6  C   UNL     1       1.351   1.135   2.618  0.00  0.00    +0.093 A 
ENDROOT
BRANCH   1  13
ATOM      7  C   UNL     1       0.256   1.500  -0.011  0.00  0.00    +0.047 C 
ATOM      8  C   UNL     1       0.202  -0.006  -0.013  0.00  0.00    -0.006 A 
ATOM      9  C   UNL     1      -0.022  -0.704  -1.186  0.00  0.00    +0.120 A 
ATOM     10  N   UNL     1      -0.063  -2.027  -1.155  0.00  0.00    -0.222 NA
ATOM     11  C   UNL     1       0.107  -2.689  -0.019  0.00  0.00    +0.220 A 
ATOM     12  N   UNL     1       0.325  -2.060   1.126  0.00  0.00    -0.214 NA
ATOM     13  C   UNL     1       0.385  -0.731   1.169  0.00  0.00    +0.080 A 
ATOM     14  N   UNL     1       0.057  -4.072  -0.030  0.00  0.00    -0.281 N 
ATOM     15  H   UNL     1       0.092  -4.566   0.805  0.00  0.00    +0.155 HD
BRANCH  14  16
ATOM     16  C   UNL     1      -0.046  -4.760  -1.246  0.00  0.00    +0.079 A 
ATOM     17  C   UNL     1       0.533  -4.234  -2.393  0.00  0.00    +0.027 A 
ATOM     18  C   UNL     1       0.432  -4.912  -3.593  0.00  0.00    +0.006 A 
ATOM     19  C   UNL     1      -0.245  -6.116  -3.656  0.00  0.00    +0.049 A 
ATOM     20  C   UNL     1      -0.827  -6.648  -2.516  0.00  0.00    +0.163 A 
ATOM     21  C   UNL     1      -0.723  -5.974  -1.305  0.00  0.00    +0.183 A 
BRANCH  21  22
ATOM     22  O   UNL     1      -1.287  -6.497  -0.182  0.00  0.00    -0.490 OA
ATOM     23  C   UNL     1      -2.639  -6.129   0.096  0.00  0.00    +0.277 C 
ENDBRANCH  21  22
BRANCH  20  24
ATOM     24  O   UNL     1      -1.493  -7.832  -2.580  0.00  0.00    -0.491 OA
ATOM     25  C   UNL     1      -1.554  -8.473  -3.856  0.00  0.00    +0.277 C 
ENDBRANCH  20  24
ENDBRANCH  14  16
ENDBRANCH   1  13
BRANCH   3  26
ATOM     26  C   UNL     1       0.407   0.477   6.069  0.00  0.00    +0.261 C 
ATOM     27  O   UNL     1      -0.239  -0.425   6.570  0.00  0.00    -0.269 OA
ATOM     28  N   UNL     1       0.909   1.458   6.844  0.00  0.00    -0.301 N 
ATOM     29  H   UNL     1       1.424   2.177   6.444  0.00  0.00    +0.150 HD
BRANCH  28  30
ATOM     30  CA  UNL     1       0.679   1.439   8.290  0.00  0.00    +0.129 C 
BRANCH  30  31
ATOM     31  C   UNL     1       1.775   2.207   8.984  0.00  0.00    -0.024 A 
ATOM     32  C   UNL     1       2.247   3.385   8.435  0.00  0.00    +0.005 A 
ATOM     33  C   UNL     1       3.253   4.089   9.071  0.00  0.00    +0.002 A 
ATOM     34  C   UNL     1       3.787   3.616  10.255  0.00  0.00    +0.020 A 
ATOM     35  C   UNL     1       3.314   2.438  10.804  0.00  0.00    +0.041 A 
ATOM     36  C   UNL     1       2.304   1.736  10.171  0.00  0.00    +0.025 A 
ATOM     37 CL   UNL     1       3.984   1.843  12.291  0.00  0.00    -0.084 Cl
ENDBRANCH  30  31
BRANCH  30  38
ATOM     38  C   UNL     1      -0.672   2.088   8.600  0.00  0.00    +0.182 C 
BRANCH  38  39
ATOM     39  O   UNL     1      -0.630   3.470   8.242  0.00  0.00    -0.393 OA
ATOM     40  H   UNL     1      -1.455   3.946   8.411  0.00  0.00    +0.209 HD
ENDBRANCH  38  39
ENDBRANCH  30  38
ENDBRANCH  28  30
ENDBRANCH   3  26
TORSDOF 9
