REMARK  Name = CHEMBL247798
REMARK  7 active torsions:
REMARK  status: ('A' for Active; 'I' for Inactive)
REMARK    1  A    between atoms: C_1  and  C_2
REMARK    2  A    between atoms: C_2  and  N_3
REMARK    3  A    between atoms: C_10  and  C_13
REMARK    4  A    between atoms: C_13  and  N_14
REMARK    5  A    between atoms: N_14  and  C_15
REMARK    6  A    between atoms: C_16  and  C_20
REMARK    7  A    between atoms: N_22  and  C_23
REMARK                            x       y       z     vdW  Elec       q    Type
REMARK                         _______ _______ _______ _____ _____    ______ ____
ROOT
ATOM      1  C   UNL     1      -4.017  -9.544   2.204  0.00  0.00    +0.138 A 
ATOM      2  C   UNL     1      -4.311  -9.917   3.519  0.00  0.00    +0.115 A 
ATOM      3  S   UNL     1      -4.853 -11.600   3.266  0.00  0.00    -0.069 S 
ATOM      4  C   UNL     1      -4.662 -11.660   1.595  0.00  0.00    +0.158 A 
ATOM      5  N   UNL     1      -4.221 -10.464   1.286  0.00  0.00    -0.232 NA
ENDROOT
BRANCH   2   6
ATOM      6  C   UNL     1      -4.207  -9.170   4.716  0.00  0.00    +0.258 C 
ATOM      7  O   UNL     1      -3.809  -8.019   4.684  0.00  0.00    -0.269 OA
ATOM      8  N   UNL     1      -4.548  -9.732   5.893  0.00  0.00    -0.281 N 
ATOM      9  H   UNL     1      -4.793 -10.670   5.929  0.00  0.00    +0.155 HD
BRANCH   8  10
ATOM     10  C   UNL     1      -4.548  -8.962   7.063  0.00  0.00    +0.037 A 
ATOM     11  C   UNL     1      -4.208  -9.544   8.277  0.00  0.00    +0.027 A 
ATOM     12  C   UNL     1      -4.207  -8.785   9.432  0.00  0.00    +0.051 A 
ATOM     13  C   UNL     1      -4.546  -7.443   9.382  0.00  0.00    +0.173 A 
ATOM     14  C   UNL     1      -4.888  -6.856   8.166  0.00  0.00    +0.174 A 
ATOM     15  C   UNL     1      -4.882  -7.616   7.008  0.00  0.00    +0.073 A 
ATOM     16  O   UNL     1      -5.177  -5.540   8.382  0.00  0.00    -0.395 OA
ATOM     17  C   UNL     1      -5.406  -5.424   9.799  0.00  0.00    +0.589 C 
ATOM     18  O   UNL     1      -4.621  -6.492  10.361  0.00  0.00    -0.395 OA
ATOM     19  F   UNL     1      -4.958  -4.185  10.269  0.00  0.00    -0.125 F 
ATOM     20  F   UNL     1      -6.762  -5.602  10.094  0.00  0.00    -0.125 F 
ENDBRANCH   8  10
ENDBRANCH   2   6
BRANCH   1  21
ATOM     21  N   UNL     1      -3.544  -8.278   1.886  0.00  0.00    -0.324 N 
ATOM     22  H   UNL     1      -3.405  -7.622   2.587  0.00  0.00    +0.148 HD
BRANCH  21  23
ATOM     23  C   UNL     1      -3.256  -7.933   0.492  0.00  0.00    +0.139 C 
BRANCH  23  31
ATOM     24  N   UNL     1      -2.076  -0.315   0.172  0.00  0.00    -0.299 N 
ATOM     25  C   UNL     1      -2.462  -1.606   0.142  0.00  0.00    +0.305 C 
ATOM     26  O   UNL     1      -3.642  -1.886   0.062  0.00  0.00    -0.252 OA
ATOM     27  N   UNL     1      -1.539  -2.587   0.201  0.00  0.00    -0.254 N 
ATOM     28  C   UNL     1      -1.942  -3.919   0.276  0.00  0.00    +0.126 A 
ATOM     29  C   UNL     1      -0.990  -4.918   0.449  0.00  0.00    +0.044 A 
ATOM     30  C   UNL     1      -1.403  -6.236   0.522  0.00  0.00    +0.010 A 
ATOM     31  C   UNL     1      -2.760  -6.511   0.419  0.00  0.00    -0.012 A 
ATOM     32  C   UNL     1      -3.650  -5.470   0.248  0.00  0.00    +0.118 A 
ATOM     33  N   UNL     1      -3.227  -4.221   0.188  0.00  0.00    -0.240 NA
ATOM     34  H   UNL     1      -1.135  -0.091   0.236  0.00  0.00    +0.150 HD
ATOM     35  H   UNL     1      -0.595  -2.365   0.192  0.00  0.00    +0.158 HD
BRANCH  24  37
ATOM     36  C   UNL     1      -2.382   2.112   0.160  0.00  0.00    +0.024 C 
ATOM     37  C   UNL     1      -3.079   0.751   0.108  0.00  0.00    +0.102 C 
ENDBRANCH  24  37
ENDBRANCH  23  31
ENDBRANCH  21  23
ENDBRANCH   1  21
TORSDOF 6
