REMARK  Name = CHEMBL332551
REMARK  1 active torsions:
REMARK  status: ('A' for Active; 'I' for Inactive)
REMARK    1  A    between atoms: C_8  and  C_16
REMARK                            x       y       z     vdW  Elec       q    Type
REMARK                         _______ _______ _______ _____ _____    ______ ____
ROOT
ATOM      1  C   UNL     1      -0.017   1.363   0.009  0.00  0.00    +0.001 A 
ATOM      2  C   UNL     1       1.171   2.085   0.002  0.00  0.00    +0.002 A 
ATOM      3  C   UNL     1       2.379   1.454  -0.018  0.00  0.00    +0.028 A 
ATOM      4  C   UNL     1       2.437   0.049  -0.035  0.00  0.00    +0.072 A 
ATOM      5  C   UNL     1       1.221  -0.678  -0.015  0.00  0.00    +0.010 A 
ATOM      6  C   UNL     1       0.002  -0.004   0.002  0.00  0.00    +0.011 A 
ATOM      7  C   UNL     1       1.609  -2.095  -0.012  0.00  0.00    +0.020 C 
ATOM      8  C   UNL     1       0.807  -3.195   0.125  0.00  0.00    -0.007 C 
ATOM      9  C   UNL     1       1.198  -4.629   0.016  0.00  0.00    +0.057 C 
ATOM     10  C   UNL     1       2.243  -4.887  -1.053  0.00  0.00    +0.109 C 
ATOM     11  N   UNL     1       3.551  -4.375  -0.739  0.00  0.00    -0.310 N 
ATOM     12  C   UNL     1       3.943  -3.255  -0.188  0.00  0.00    +0.263 C 
ATOM     13  O   UNL     1       5.073  -3.188   0.257  0.00  0.00    -0.269 OA
ATOM     14  C   UNL     1       3.073  -2.071  -0.085  0.00  0.00    +0.134 C 
ATOM     15  N   UNL     1       3.464  -0.809  -0.072  0.00  0.00    -0.241 NA
ATOM     16  H   UNL     1       4.277  -4.972  -0.980  0.00  0.00    +0.149 HD
ENDROOT
BRANCH   8  17
ATOM     17  C   UNL     1      -0.544  -2.944   0.402  0.00  0.00    +0.111 A 
ATOM     18  C   UNL     1      -1.078  -2.526   1.626  0.00  0.00    +0.275 A 
ATOM     19  N   UNL     1      -2.422  -2.408   1.440  0.00  0.00    -0.295 N 
ATOM     20  H   UNL     1      -3.070  -2.134   2.108  0.00  0.00    +0.172 HD
ATOM     21  C   UNL     1      -2.696  -2.744   0.141  0.00  0.00    +0.171 A 
ATOM     22  N   UNL     1      -1.586  -3.055  -0.474  0.00  0.00    -0.325 N 
ATOM     23  N   UNL     1      -3.953  -2.749  -0.432  0.00  0.00    -0.330 N 
ATOM     24  O   UNL     1      -0.395  -2.287   2.767  0.00  0.00    -0.266 OA
ATOM     25  H   UNL     1      -4.728  -2.499   0.096  0.00  0.00    +0.145 HD
ATOM     26  H   UNL     1      -4.061  -3.001  -1.362  0.00  0.00    +0.145 HD
ATOM     27  H   UNL     1      -1.514  -3.325  -1.403  0.00  0.00    +0.169 HD
ENDBRANCH   8  17
TORSDOF 1
