REMARK  Name = CHEMBL572162
REMARK  8 active torsions:
REMARK  status: ('A' for Active; 'I' for Inactive)
REMARK    1  A    between atoms: C_1  and  C_2
REMARK    2  A    between atoms: C_7  and  C_8
REMARK    3  A    between atoms: CA_10  and  C_14
REMARK    4  A    between atoms: N_16  and  CA_17
REMARK    5  A    between atoms: CA_17  and  C_19
REMARK    6  A    between atoms: CA_17  and  C_21
REMARK    7  A    between atoms: C_19  and  O_20
REMARK    8  A    between atoms: N_27  and  C_28
REMARK                            x       y       z     vdW  Elec       q    Type
REMARK                         _______ _______ _______ _____ _____    ______ ____
ROOT
ATOM      1  C   UNL     1       0.640  -0.030   2.450  0.00  0.00    +0.019 A 
ATOM      2  C   UNL     1       0.191  -0.431   3.724  0.00  0.00    +0.042 A 
ATOM      3  CA  UNL     1       0.643   0.495   4.619  0.00  0.00    +0.102 A 
ATOM      4  N   UNL     1       1.355   1.450   3.927  0.00  0.00    -0.356 N 
ATOM      5  H   UNL     1       1.786   2.225   4.320  0.00  0.00    +0.165 HD
ATOM      6  C   UNL     1       1.359   1.133   2.618  0.00  0.00    +0.093 A 
ENDROOT
BRANCH   1  13
ATOM      7  C   UNL     1       0.266   1.500  -0.012  0.00  0.00    +0.047 C 
ATOM      8  C   UNL     1       0.210  -0.006  -0.014  0.00  0.00    -0.006 A 
ATOM      9  C   UNL     1      -0.015  -0.704  -1.186  0.00  0.00    +0.120 A 
ATOM     10  N   UNL     1      -0.058  -2.027  -1.155  0.00  0.00    -0.222 NA
ATOM     11  C   UNL     1       0.110  -2.689  -0.019  0.00  0.00    +0.220 A 
ATOM     12  N   UNL     1       0.327  -2.061   1.126  0.00  0.00    -0.214 NA
ATOM     13  C   UNL     1       0.390  -0.731   1.168  0.00  0.00    +0.080 A 
ATOM     14  N   UNL     1       0.057  -4.073  -0.030  0.00  0.00    -0.281 N 
ATOM     15  H   UNL     1       0.091  -4.566   0.805  0.00  0.00    +0.155 HD
BRANCH  14  16
ATOM     16  C   UNL     1      -0.045  -4.760  -1.245  0.00  0.00    +0.069 A 
ATOM     17  C   UNL     1       0.534  -4.234  -2.392  0.00  0.00    +0.026 A 
ATOM     18  C   UNL     1       0.432  -4.914  -3.590  0.00  0.00    +0.002 A 
ATOM     19  C   UNL     1      -0.245  -6.119  -3.648  0.00  0.00    +0.003 A 
ATOM     20  C   UNL     1      -0.824  -6.646  -2.509  0.00  0.00    +0.040 A 
ATOM     21  C   UNL     1      -0.721  -5.973  -1.305  0.00  0.00    +0.144 A 
ATOM     22  F   UNL     1      -1.281  -6.492  -0.190  0.00  0.00    -0.204 F 
ENDBRANCH  14  16
ENDBRANCH   1  13
BRANCH   3  23
ATOM     23  C   UNL     1       0.412   0.477   6.068  0.00  0.00    +0.261 C 
ATOM     24  O   UNL     1      -0.236  -0.423   6.569  0.00  0.00    -0.269 OA
ATOM     25  N   UNL     1       0.916   1.458   6.843  0.00  0.00    -0.301 N 
ATOM     26  H   UNL     1       1.432   2.175   6.444  0.00  0.00    +0.150 HD
BRANCH  25  27
ATOM     27  CA  UNL     1       0.685   1.440   8.290  0.00  0.00    +0.129 C 
BRANCH  27  28
ATOM     28  C   UNL     1       1.782   2.205   8.984  0.00  0.00    -0.025 A 
ATOM     29  C   UNL     1       2.257   3.382   8.435  0.00  0.00    +0.005 A 
ATOM     30  C   UNL     1       3.264   4.084   9.072  0.00  0.00    +0.000 A 
ATOM     31  C   UNL     1       3.795   3.609  10.257  0.00  0.00    +0.000 A 
ATOM     32  C   UNL     1       3.319   2.433  10.805  0.00  0.00    +0.000 A 
ATOM     33  C   UNL     1       2.309   1.733  10.171  0.00  0.00    +0.005 A 
ENDBRANCH  27  28
BRANCH  27  34
ATOM     34  C   UNL     1      -0.665   2.091   8.599  0.00  0.00    +0.182 C 
BRANCH  34  35
ATOM     35  O   UNL     1      -0.620   3.473   8.240  0.00  0.00    -0.393 OA
ATOM     36  H   UNL     1      -1.444   3.950   8.409  0.00  0.00    +0.209 HD
ENDBRANCH  34  35
ENDBRANCH  27  34
ENDBRANCH  25  27
ENDBRANCH   3  23
TORSDOF 7
