REMARK  Name = CHEMBL572157
REMARK  10 active torsions:
REMARK  status: ('A' for Active; 'I' for Inactive)
REMARK    1  A    between atoms: C_1  and  C_2
REMARK    2  A    between atoms: C_6  and  N_9
REMARK    3  A    between atoms: C_7  and  C_8
REMARK    4  A    between atoms: C_13  and  C_36
REMARK    5  A    between atoms: C_14  and  C_16
REMARK    6  A    between atoms: CA_18  and  C_22
REMARK    7  A    between atoms: N_24  and  CA_25
REMARK    8  A    between atoms: CA_25  and  C_27
REMARK    9  A    between atoms: CA_25  and  C_29
REMARK   10  A    between atoms: C_27  and  O_28
REMARK                            x       y       z     vdW  Elec       q    Type
REMARK                         _______ _______ _______ _____ _____    ______ ____
ROOT
ATOM      1  C   UNL     1       0.407  -7.213   4.646  0.00  0.00    +0.019 A 
ATOM      2  C   UNL     1       1.249  -6.925   5.739  0.00  0.00    +0.042 A 
ATOM      3  CA  UNL     1       1.070  -7.920   6.657  0.00  0.00    +0.102 A 
ATOM      4  N   UNL     1       0.142  -8.805   6.156  0.00  0.00    -0.356 N 
ATOM      5  H   UNL     1      -0.171  -9.606   6.605  0.00  0.00    +0.165 HD
ATOM      6  C   UNL     1      -0.264  -8.379   4.945  0.00  0.00    +0.093 A 
ENDROOT
BRANCH   1  12
ATOM      7  N   UNL     1      -2.333  -5.245   1.263  0.00  0.00    -0.283 N 
ATOM      8  C   UNL     1      -1.068  -5.463   1.781  0.00  0.00    +0.220 A 
ATOM      9  N   UNL     1      -0.017  -4.948   1.159  0.00  0.00    -0.222 NA
ATOM     10  C   UNL     1       1.209  -5.134   1.623  0.00  0.00    +0.120 A 
ATOM     11  C   UNL     1       1.391  -5.878   2.775  0.00  0.00    -0.006 A 
ATOM     12  C   UNL     1       0.264  -6.409   3.410  0.00  0.00    +0.080 A 
ATOM     13  N   UNL     1      -0.939  -6.177   2.889  0.00  0.00    -0.214 NA
ATOM     14  C   UNL     1       2.772  -6.111   3.332  0.00  0.00    +0.047 C 
ATOM     15  H   UNL     1      -3.116  -5.537   1.755  0.00  0.00    +0.155 HD
BRANCH   7  21
ATOM     16  C   UNL     1      -5.102  -2.611  -1.830  0.00  0.00    +0.044 C 
ATOM     17  C   UNL     1      -3.814  -3.319  -1.497  0.00  0.00    -0.046 A 
ATOM     18  C   UNL     1      -2.777  -3.334  -2.412  0.00  0.00    +0.004 A 
ATOM     19  C   UNL     1      -1.593  -3.982  -2.110  0.00  0.00    +0.002 A 
ATOM     20  C   UNL     1      -1.443  -4.617  -0.892  0.00  0.00    +0.023 A 
ATOM     21  C   UNL     1      -2.482  -4.603   0.029  0.00  0.00    +0.037 A 
ATOM     22  C   UNL     1      -3.668  -3.946  -0.275  0.00  0.00    -0.026 A 
ATOM     23  C   UNL     1      -4.796  -3.924   0.724  0.00  0.00    +0.046 C 
ENDBRANCH   7  21
ENDBRANCH   1  12
BRANCH   3  24
ATOM     24  C   UNL     1       1.748  -8.026   7.954  0.00  0.00    +0.261 C 
ATOM     25  O   UNL     1       2.553  -7.178   8.291  0.00  0.00    -0.269 OA
ATOM     26  N   UNL     1       1.479  -9.063   8.772  0.00  0.00    -0.301 N 
ATOM     27  H   UNL     1       0.838  -9.739   8.503  0.00  0.00    +0.150 HD
BRANCH  26  28
ATOM     28  CA  UNL     1       2.156  -9.170  10.066  0.00  0.00    +0.129 C 
BRANCH  28  29
ATOM     29  C   UNL     1       1.308  -9.980  11.012  0.00  0.00    -0.024 A 
ATOM     30  C   UNL     1       0.641 -11.102  10.555  0.00  0.00    +0.005 A 
ATOM     31  C   UNL     1      -0.138 -11.845  11.421  0.00  0.00    +0.002 A 
ATOM     32  C   UNL     1      -0.251 -11.467  12.746  0.00  0.00    +0.020 A 
ATOM     33  C   UNL     1       0.416 -10.345  13.205  0.00  0.00    +0.041 A 
ATOM     34  C   UNL     1       1.200  -9.605  12.338  0.00  0.00    +0.025 A 
ATOM     35 CL   UNL     1       0.274  -9.871  14.868  0.00  0.00    -0.084 Cl
ENDBRANCH  28  29
BRANCH  28  36
ATOM     36  C   UNL     1       3.510  -9.858   9.879  0.00  0.00    +0.182 C 
BRANCH  36  37
ATOM     37  O   UNL     1       3.304 -11.205   9.448  0.00  0.00    -0.393 OA
ATOM     38  H   UNL     1       4.121 -11.703   9.309  0.00  0.00    +0.209 HD
ENDBRANCH  36  37
ENDBRANCH  28  36
ENDBRANCH  26  28
ENDBRANCH   3  24
TORSDOF 7
