REMARK  Name = CHEMBL221109
REMARK  5 active torsions:
REMARK  status: ('A' for Active; 'I' for Inactive)
REMARK    1  A    between atoms: C_3  and  C_8
REMARK    2  A    between atoms: C_13  and  C_14
REMARK    3  A    between atoms: C_16  and  C_20
REMARK    4  A    between atoms: N_22  and  C_23
REMARK    5  A    between atoms: C_23  and  C_24
REMARK                            x       y       z     vdW  Elec       q    Type
REMARK                         _______ _______ _______ _____ _____    ______ ____
ROOT
ATOM      1  C   UNL     1       4.753   1.105   2.036  0.00  0.00    +0.018 A 
ATOM      2  C   UNL     1       5.081   1.441   3.365  0.00  0.00    +0.042 A 
ATOM      3  C   UNL     1       5.006   0.292   4.101  0.00  0.00    +0.102 A 
ATOM      4  N   UNL     1       4.641  -0.734   3.260  0.00  0.00    -0.356 N 
ATOM      5  H   UNL     1       4.515  -1.659   3.523  0.00  0.00    +0.165 HD
ATOM      6  C   UNL     1       4.481  -0.247   2.013  0.00  0.00    +0.093 A 
ENDROOT
BRANCH   1  12
ATOM      7  C   UNL     1       3.690   2.116  -0.062  0.00  0.00    +0.027 A 
ATOM      8  C   UNL     1       4.051   3.130  -0.969  0.00  0.00    +0.143 A 
ATOM      9  N   UNL     1       5.205   3.622  -0.604  0.00  0.00    -0.181 NA
ATOM     10  N   UNL     1       5.643   2.956   0.547  0.00  0.00    -0.276 N 
ATOM     11  H   UNL     1       6.470   3.127   1.023  0.00  0.00    +0.189 HD
ATOM     12  C   UNL     1       4.703   2.029   0.883  0.00  0.00    +0.075 A 
BRANCH   7  15
ATOM     13  C   UNL     1       0.459   0.488   0.956  0.00  0.00    +0.002 A 
ATOM     14  C   UNL     1       1.608   1.252   1.001  0.00  0.00    +0.009 A 
ATOM     15  C   UNL     1       2.455   1.298  -0.105  0.00  0.00    -0.013 A 
ATOM     16  C   UNL     1       2.136   0.572  -1.251  0.00  0.00    +0.028 A 
ATOM     17  C   UNL     1       0.984  -0.189  -1.285  0.00  0.00    +0.042 A 
ATOM     18  C   UNL     1       0.146  -0.230  -0.183  0.00  0.00    +0.020 A 
ATOM     19 CL   UNL     1       0.585  -1.094  -2.712  0.00  0.00    -0.084 Cl
ENDBRANCH   7  15
ENDBRANCH   1  12
BRANCH   3  20
ATOM     20  C   UNL     1       5.269   0.173   5.539  0.00  0.00    +0.261 C 
ATOM     21  O   UNL     1       5.586   1.156   6.183  0.00  0.00    -0.269 OA
ATOM     22  N   UNL     1       5.158  -1.024   6.148  0.00  0.00    -0.306 N 
ATOM     23  H   UNL     1       4.905  -1.807   5.635  0.00  0.00    +0.149 HD
BRANCH  22  24
ATOM     24  C   UNL     1       5.421  -1.143   7.584  0.00  0.00    +0.140 C 
BRANCH  24  25
ATOM     25  C   UNL     1       5.229  -2.575   8.013  0.00  0.00    -0.027 A 
ATOM     26  C   UNL     1       3.990  -3.029   8.438  0.00  0.00    +0.025 A 
ATOM     27  C   UNL     1       3.852  -4.349   8.824  0.00  0.00    +0.111 A 
ATOM     28  N   UNL     1       4.882  -5.172   8.791  0.00  0.00    -0.263 NA
ATOM     29  C   UNL     1       6.075  -4.775   8.393  0.00  0.00    +0.111 A 
ATOM     30  C   UNL     1       6.287  -3.471   7.987  0.00  0.00    +0.025 A 
ENDBRANCH  24  25
ENDBRANCH  22  24
ENDBRANCH   3  20
TORSDOF 5
