REMARK  Name = CHEMBL571030
REMARK  9 active torsions:
REMARK  status: ('A' for Active; 'I' for Inactive)
REMARK    1  A    between atoms: C_1  and  C_2
REMARK    2  A    between atoms: C_7  and  C_8
REMARK    3  A    between atoms: CA_10  and  C_14
REMARK    4  A    between atoms: N_16  and  CA_17
REMARK    5  A    between atoms: CA_17  and  C_19
REMARK    6  A    between atoms: CA_17  and  C_21
REMARK    7  A    between atoms: C_19  and  O_20
REMARK    8  A    between atoms: N_27  and  C_28
REMARK    9  A    between atoms: C_33  and  C_34
REMARK                            x       y       z     vdW  Elec       q    Type
REMARK                         _______ _______ _______ _____ _____    ______ ____
ROOT
ATOM      1  C   UNL     1       0.595  -0.024   2.451  0.00  0.00    +0.019 A 
ATOM      2  C   UNL     1       0.162  -0.435   3.728  0.00  0.00    +0.042 A 
ATOM      3  CA  UNL     1       0.607   0.498   4.621  0.00  0.00    +0.102 A 
ATOM      4  N   UNL     1       1.298   1.464   3.925  0.00  0.00    -0.356 N 
ATOM      5  H   UNL     1       1.721   2.245   4.316  0.00  0.00    +0.165 HD
ATOM      6  C   UNL     1       1.297   1.150   2.616  0.00  0.00    +0.093 A 
ENDROOT
BRANCH   1  13
ATOM      7  C   UNL     1       0.179   1.502  -0.006  0.00  0.00    +0.047 C 
ATOM      8  C   UNL     1       0.146  -0.005  -0.010  0.00  0.00    -0.006 A 
ATOM      9  C   UNL     1      -0.076  -0.704  -1.181  0.00  0.00    +0.120 A 
ATOM     10  N   UNL     1      -0.099  -2.028  -1.151  0.00  0.00    -0.222 NA
ATOM     11  C   UNL     1       0.088  -2.688  -0.017  0.00  0.00    +0.220 A 
ATOM     12  N   UNL     1       0.304  -2.058   1.127  0.00  0.00    -0.214 NA
ATOM     13  C   UNL     1       0.346  -0.728   1.170  0.00  0.00    +0.080 A 
ATOM     14  N   UNL     1       0.057  -4.073  -0.030  0.00  0.00    -0.283 N 
ATOM     15  H   UNL     1       0.106  -4.566   0.804  0.00  0.00    +0.155 HD
BRANCH  14  16
ATOM     16  C   UNL     1      -0.045  -4.759  -1.244  0.00  0.00    +0.045 A 
ATOM     17  C   UNL     1       0.534  -4.233  -2.391  0.00  0.00    +0.024 A 
ATOM     18  C   UNL     1       0.432  -4.913  -3.589  0.00  0.00    +0.002 A 
ATOM     19  C   UNL     1      -0.246  -6.117  -3.646  0.00  0.00    +0.001 A 
ATOM     20  C   UNL     1      -0.824  -6.644  -2.505  0.00  0.00    +0.014 A 
ATOM     21  C   UNL     1      -0.720  -5.971  -1.303  0.00  0.00    +0.076 A 
BRANCH  21  22
ATOM     22  C   UNL     1      -1.345  -6.549  -0.059  0.00  0.00    +0.419 C 
ATOM     23  F   UNL     1      -1.963  -7.765  -0.369  0.00  0.00    -0.166 F 
ATOM     24  F   UNL     1      -0.353  -6.762   0.904  0.00  0.00    -0.166 F 
ATOM     25  F   UNL     1      -2.298  -5.656   0.442  0.00  0.00    -0.166 F 
ENDBRANCH  21  22
ENDBRANCH  14  16
ENDBRANCH   1  13
BRANCH   3  26
ATOM     26  C   UNL     1       0.386   0.474   6.071  0.00  0.00    +0.261 C 
ATOM     27  O   UNL     1      -0.245  -0.436   6.576  0.00  0.00    -0.269 OA
ATOM     28  N   UNL     1       0.880   1.461   6.845  0.00  0.00    -0.301 N 
ATOM     29  H   UNL     1       1.383   2.187   6.442  0.00  0.00    +0.150 HD
BRANCH  28  30
ATOM     30  CA  UNL     1       0.660   1.438   8.293  0.00  0.00    +0.129 C 
BRANCH  30  31
ATOM     31  C   UNL     1       1.750   2.219   8.980  0.00  0.00    -0.025 A 
ATOM     32  C   UNL     1       2.204   3.403   8.430  0.00  0.00    +0.005 A 
ATOM     33  C   UNL     1       3.204   4.119   9.060  0.00  0.00    +0.000 A 
ATOM     34  C   UNL     1       3.751   3.651  10.240  0.00  0.00    +0.000 A 
ATOM     35  C   UNL     1       3.297   2.467  10.791  0.00  0.00    +0.000 A 
ATOM     36  C   UNL     1       2.293   1.753  10.163  0.00  0.00    +0.005 A 
ENDBRANCH  30  31
BRANCH  30  37
ATOM     37  C   UNL     1      -0.697   2.068   8.612  0.00  0.00    +0.182 C 
BRANCH  37  38
ATOM     38  O   UNL     1      -0.676   3.451   8.255  0.00  0.00    -0.393 OA
ATOM     39  H   UNL     1      -1.506   3.916   8.430  0.00  0.00    +0.209 HD
ENDBRANCH  37  38
ENDBRANCH  30  37
ENDBRANCH  28  30
ENDBRANCH   3  26
TORSDOF 8
