REMARK  Name = CHEMBL374876
REMARK  3 active torsions:
REMARK  status: ('A' for Active; 'I' for Inactive)
REMARK    1  A    between atoms: C_3  and  C_8
REMARK    2  A    between atoms: C_13  and  C_14
REMARK    3  A    between atoms: C_16  and  C_20
REMARK                            x       y       z     vdW  Elec       q    Type
REMARK                         _______ _______ _______ _____ _____    ______ ____
ROOT
ATOM      1  C   UNL     1       4.755   0.776   1.817  0.00  0.00    +0.021 A 
ATOM      2  C   UNL     1       5.815  -0.114   2.078  0.00  0.00    +0.042 A 
ATOM      3  C   UNL     1       5.657  -0.562   3.359  0.00  0.00    +0.103 A 
ATOM      4  N   UNL     1       4.530   0.032   3.881  0.00  0.00    -0.356 N 
ATOM      5  H   UNL     1       4.182  -0.107   4.775  0.00  0.00    +0.165 HD
ATOM      6  C   UNL     1       3.991   0.844   2.948  0.00  0.00    +0.093 A 
ENDROOT
BRANCH   3   7
ATOM      7  C   UNL     1       6.534  -1.510   4.056  0.00  0.00    +0.263 C 
ATOM      8  O   UNL     1       7.680  -1.668   3.679  0.00  0.00    -0.268 OA
ATOM      9  N   UNL     1       6.069  -2.206   5.113  0.00  0.00    -0.292 N 
ATOM     10  C   UNL     1       4.649  -2.148   5.492  0.00  0.00    +0.136 C 
ATOM     11  C   UNL     1       4.131  -3.582   5.649  0.00  0.00    +0.179 C 
ATOM     12  O   UNL     1       4.996  -4.301   6.532  0.00  0.00    -0.377 OA
ATOM     13  C   UNL     1       6.337  -4.436   6.056  0.00  0.00    +0.179 C 
ATOM     14  C   UNL     1       6.966  -3.050   5.917  0.00  0.00    +0.136 C 
ENDBRANCH   3   7
BRANCH   1  20
ATOM     15  C   UNL     1       3.250   1.823  -0.007  0.00  0.00    +0.027 A 
ATOM     16  C   UNL     1       3.471   2.505  -1.167  0.00  0.00    +0.114 A 
ATOM     17  N   UNL     1       4.804   2.612  -1.336  0.00  0.00    -0.284 N 
ATOM     18  N   UNL     1       5.439   1.983  -0.258  0.00  0.00    -0.173 NA
ATOM     19  H   UNL     1       5.249   3.050  -2.078  0.00  0.00    +0.188 HD
ATOM     20  C   UNL     1       4.515   1.510   0.550  0.00  0.00    +0.102 A 
BRANCH  15  23
ATOM     21  C   UNL     1      -0.283   2.129   1.242  0.00  0.00    +0.002 A 
ATOM     22  C   UNL     1       0.947   2.456   0.706  0.00  0.00    +0.009 A 
ATOM     23  C   UNL     1       1.928   1.477   0.569  0.00  0.00    -0.013 A 
ATOM     24  C   UNL     1       1.662   0.170   0.975  0.00  0.00    +0.028 A 
ATOM     25  C   UNL     1       0.429  -0.146   1.510  0.00  0.00    +0.042 A 
ATOM     26  C   UNL     1      -0.542   0.832   1.644  0.00  0.00    +0.020 A 
ATOM     27 CL   UNL     1       0.096  -1.773   2.017  0.00  0.00    -0.084 Cl
ENDBRANCH  15  23
ENDBRANCH   1  20
TORSDOF 3
