REMARK  Name = CHEMBL524266
REMARK  3 active torsions:
REMARK  status: ('A' for Active; 'I' for Inactive)
REMARK    1  A    between atoms: C_6  and  C_7
REMARK    2  A    between atoms: C_13  and  C_19
REMARK    3  A    between atoms: C_19  and  C_20
REMARK                            x       y       z     vdW  Elec       q    Type
REMARK                         _______ _______ _______ _____ _____    ______ ____
ROOT
ATOM      1  C   UNL     1      -1.259  -0.771   0.010  0.00  0.00    +0.066 A 
ATOM      2  C   UNL     1      -1.365  -2.132   0.010  0.00  0.00    +0.042 A 
ATOM      3  C   UNL     1      -2.732  -2.431   0.020  0.00  0.00    +0.058 A 
ATOM      4  C   UNL     1      -3.423  -1.222   0.024  0.00  0.00    +0.033 A 
ATOM      5  N   UNL     1      -2.530  -0.234   0.026  0.00  0.00    -0.356 N 
ATOM      6  H   UNL     1      -2.739   0.714   0.034  0.00  0.00    +0.166 HD
ATOM      7  C   UNL     1      -4.930  -1.190   0.029  0.00  0.00    +0.056 C 
ATOM      8  C   UNL     1      -5.453  -2.443  -0.673  0.00  0.00    +0.114 C 
ATOM      9  N   UNL     1      -4.786  -3.660  -0.232  0.00  0.00    -0.311 N 
ATOM     10  C   UNL     1      -3.458  -3.713   0.027  0.00  0.00    +0.246 C 
ATOM     11  O   UNL     1      -2.892  -4.766   0.254  0.00  0.00    -0.270 OA
ATOM     12  H   UNL     1      -5.314  -4.466  -0.118  0.00  0.00    +0.149 HD
ENDROOT
BRANCH   1  18
ATOM     13  C   UNL     1      -0.017   1.396   0.010  0.00  0.00    +0.049 A 
ATOM     14  C   UNL     1       1.190   2.071   0.002  0.00  0.00    +0.116 A 
ATOM     15  N   UNL     1       2.319   1.379  -0.013  0.00  0.00    -0.223 NA
ATOM     16  C   UNL     1       2.309   0.054  -0.020  0.00  0.00    +0.213 A 
ATOM     17  N   UNL     1       1.178  -0.633  -0.013  0.00  0.00    -0.213 NA
ATOM     18  C   UNL     1       0.002  -0.004   0.002  0.00  0.00    +0.092 A 
ATOM     19  N   UNL     1       3.512  -0.630  -0.035  0.00  0.00    -0.327 N 
ATOM     20  H   UNL     1       4.349  -0.139  -0.040  0.00  0.00    +0.145 HD
ATOM     21  H   UNL     1       3.519  -1.600  -0.040  0.00  0.00    +0.145 HD
ENDBRANCH   1  18
BRANCH   7  22
ATOM     22  C   UNL     1      -5.419   0.057  -0.711  0.00  0.00    +0.044 C 
BRANCH  22  23
ATOM     23  C   UNL     1      -6.942   0.154  -0.597  0.00  0.00    +0.214 C 
ATOM     24  F   UNL     1      -7.388   1.294  -1.273  0.00  0.00    -0.249 F 
ENDBRANCH  22  23
ENDBRANCH   7  22
TORSDOF 3
