REMARK  Name = CHEMBL199395
REMARK  4 active torsions:
REMARK  status: ('A' for Active; 'I' for Inactive)
REMARK    1  A    between atoms: C_2  and  C_3
REMARK    2  A    between atoms: C_3  and  N_4
REMARK    3  A    between atoms: C_8  and  C_11
REMARK    4  A    between atoms: C_19  and  C_20
REMARK                            x       y       z     vdW  Elec       q    Type
REMARK                         _______ _______ _______ _____ _____    ______ ____
ROOT
ATOM      1  N   UNL     1      -1.760  -1.738  -0.999  0.00  0.00    -0.239 N 
ATOM      2  C   UNL     1      -1.913  -1.694  -2.358  0.00  0.00    +0.183 A 
ATOM      3  C   UNL     1      -3.230  -1.242  -2.599  0.00  0.00    +0.064 A 
ATOM      4  C   UNL     1      -3.654  -1.104  -3.922  0.00  0.00    +0.045 A 
ATOM      5  C   UNL     1      -2.740  -1.425  -4.926  0.00  0.00    +0.098 A 
ATOM      6  N   UNL     1      -1.517  -1.844  -4.601  0.00  0.00    -0.147 NA
ATOM      7  N   UNL     1      -1.123  -1.973  -3.386  0.00  0.00    -0.129 NA
ATOM      8  C   UNL     1      -3.840  -1.024  -1.289  0.00  0.00    +0.148 A 
ATOM      9  N   UNL     1      -2.948  -1.331  -0.384  0.00  0.00    -0.154 NA
ATOM     10  N   UNL     1      -5.141  -0.574  -1.048  0.00  0.00    -0.341 N 
ATOM     11  H   UNL     1      -5.731  -0.376  -1.792  0.00  0.00    +0.144 HD
ATOM     12  H   UNL     1      -5.454  -0.461  -0.137  0.00  0.00    +0.144 HD
ENDROOT
BRANCH   5  13
ATOM     13  C   UNL     1      -3.127  -1.300  -6.348  0.00  0.00    +0.055 A 
ATOM     14  C   UNL     1      -3.765  -0.206  -6.944  0.00  0.00    +0.077 A 
ATOM     15  C   UNL     1      -4.212   1.027  -6.441  0.00  0.00    +0.028 A 
ATOM     16  C   UNL     1      -4.812   1.913  -7.284  0.00  0.00    +0.004 A 
ATOM     17  C   UNL     1      -4.973   1.578  -8.638  0.00  0.00    +0.020 A 
ATOM     18  C   UNL     1      -4.537   0.388  -9.104  0.00  0.00    +0.113 A 
ATOM     19  N   UNL     1      -3.934  -0.508  -8.270  0.00  0.00    -0.239 N 
ATOM     20  N   UNL     1      -3.403  -1.785  -8.492  0.00  0.00    -0.166 NA
ATOM     21  C   UNL     1      -2.918  -2.258  -7.359  0.00  0.00    +0.103 A 
BRANCH  21  22
ATOM     22  C   UNL     1      -2.266  -3.577  -7.180  0.00  0.00    +0.003 A 
ATOM     23  C   UNL     1      -2.554  -4.354  -6.058  0.00  0.00    +0.010 A 
ATOM     24  C   UNL     1      -1.944  -5.581  -5.897  0.00  0.00    +0.001 A 
ATOM     25  C   UNL     1      -1.048  -6.041  -6.846  0.00  0.00    +0.000 A 
ATOM     26  C   UNL     1      -0.759  -5.275  -7.960  0.00  0.00    +0.001 A 
ATOM     27  C   UNL     1      -1.367  -4.049  -8.135  0.00  0.00    +0.010 A 
ENDBRANCH  21  22
ENDBRANCH   5  13
BRANCH   1  28
ATOM     28  C   UNL     1      -0.543  -2.154  -0.297  0.00  0.00    +0.172 C 
BRANCH  28  30
ATOM     29  C   UNL     1       0.396  -4.401  -0.470  0.00  0.00    +0.006 C 
ATOM     30  C   UNL     1      -0.586  -3.641  -0.053  0.00  0.00    -0.011 C 
ENDBRANCH  28  30
ENDBRANCH   1  28
TORSDOF 4
