REMARK  Name = CHEMBL219988
REMARK  7 active torsions:
REMARK  status: ('A' for Active; 'I' for Inactive)
REMARK    1  A    between atoms: C_5  and  CA_7
REMARK    2  A    between atoms: CA_7  and  C_8
REMARK    3  A    between atoms: CA_7  and  N_10
REMARK    4  A    between atoms: C_8  and  O_9
REMARK    5  A    between atoms: C_11  and  CA_13
REMARK    6  A    between atoms: C_15  and  C_19
REMARK    7  A    between atoms: C_20  and  C_25
REMARK                            x       y       z     vdW  Elec       q    Type
REMARK                         _______ _______ _______ _____ _____    ______ ____
ROOT
ATOM      1  CA  UNL     1      -1.254  -4.385   1.813  0.00  0.00    +0.102 A 
ATOM      2  C   UNL     1      -1.395  -5.559   2.499  0.00  0.00    +0.042 A 
ATOM      3  C   UNL     1      -2.745  -5.651   2.889  0.00  0.00    +0.021 A 
ATOM      4  C   UNL     1      -3.380  -4.532   2.429  0.00  0.00    +0.093 A 
ATOM      5  N   UNL     1      -2.481  -3.762   1.783  0.00  0.00    -0.356 N 
ATOM      6  H   UNL     1      -2.670  -2.908   1.363  0.00  0.00    +0.165 HD
ENDROOT
BRANCH   3   7
ATOM      7  C   UNL     1      -3.364  -6.759   3.658  0.00  0.00    +0.102 A 
ATOM      8  C   UNL     1      -4.403  -6.634   4.614  0.00  0.00    +0.027 A 
ATOM      9  C   UNL     1      -4.679  -7.883   5.084  0.00  0.00    +0.114 A 
ATOM     10  N   UNL     1      -3.858  -8.751   4.459  0.00  0.00    -0.284 N 
ATOM     11  N   UNL     1      -3.049  -8.032   3.571  0.00  0.00    -0.173 NA
ATOM     12  H   UNL     1      -3.834  -9.710   4.599  0.00  0.00    +0.188 HD
BRANCH   8  13
ATOM     13  C   UNL     1      -5.068  -5.373   5.027  0.00  0.00    -0.013 A 
ATOM     14  C   UNL     1      -4.303  -4.267   5.394  0.00  0.00    +0.009 A 
ATOM     15  C   UNL     1      -4.926  -3.097   5.777  0.00  0.00    +0.002 A 
ATOM     16  C   UNL     1      -6.307  -3.020   5.797  0.00  0.00    +0.020 A 
ATOM     17  C   UNL     1      -7.072  -4.115   5.434  0.00  0.00    +0.042 A 
ATOM     18  C   UNL     1      -6.458  -5.289   5.043  0.00  0.00    +0.028 A 
ATOM     19 CL   UNL     1      -8.804  -4.010   5.463  0.00  0.00    -0.084 Cl
ENDBRANCH   8  13
ENDBRANCH   3   7
BRANCH   1  21
ATOM     20  N   UNL     1      -0.011  -2.695   0.571  0.00  0.00    -0.301 N 
ATOM     21  C   UNL     1      -0.013  -3.876   1.219  0.00  0.00    +0.261 C 
ATOM     22  O   UNL     1       1.015  -4.521   1.312  0.00  0.00    -0.269 OA
ATOM     23  H   UNL     1      -0.831  -2.181   0.497  0.00  0.00    +0.150 HD
BRANCH  20  24
ATOM     24  CA  UNL     1       1.228  -2.186  -0.022  0.00  0.00    +0.132 C 
BRANCH  24  29
ATOM     25  C   UNL     1      -0.084   1.349  -0.200  0.00  0.00    +0.000 A 
ATOM     26  C   UNL     1       1.088   2.082  -0.174  0.00  0.00    +0.003 A 
ATOM     27  C   UNL     1       2.307   1.435  -0.099  0.00  0.00    +0.039 A 
ATOM     28  C   UNL     1       2.353   0.052  -0.050  0.00  0.00    +0.128 A 
ATOM     29  C   UNL     1       1.179  -0.681  -0.075  0.00  0.00    +0.010 A 
ATOM     30  C   UNL     1      -0.039  -0.031  -0.150  0.00  0.00    +0.008 A 
ATOM     31  F   UNL     1       3.544  -0.582   0.023  0.00  0.00    -0.205 F 
ENDBRANCH  24  29
BRANCH  24  32
ATOM     32  C   UNL     1       1.381  -2.742  -1.439  0.00  0.00    +0.183 C 
BRANCH  32  33
ATOM     33  O   UNL     1       0.331  -2.235  -2.265  0.00  0.00    -0.393 OA
ATOM     34  H   UNL     1       0.365  -2.547  -3.180  0.00  0.00    +0.209 HD
ENDBRANCH  32  33
ENDBRANCH  24  32
ENDBRANCH  20  24
ENDBRANCH   1  21
TORSDOF 7
