REMARK  Name = CHEMBL570366
REMARK  9 active torsions:
REMARK  status: ('A' for Active; 'I' for Inactive)
REMARK    1  A    between atoms: C_1  and  C_2
REMARK    2  A    between atoms: C_7  and  C_8
REMARK    3  A    between atoms: CA_10  and  C_14
REMARK    4  A    between atoms: N_16  and  CA_17
REMARK    5  A    between atoms: CA_17  and  C_19
REMARK    6  A    between atoms: CA_17  and  C_21
REMARK    7  A    between atoms: C_19  and  O_20
REMARK    8  A    between atoms: N_27  and  C_28
REMARK    9  A    between atoms: C_33  and  O_34
REMARK                            x       y       z     vdW  Elec       q    Type
REMARK                         _______ _______ _______ _____ _____    ______ ____
ROOT
ATOM      1  C   UNL     1       0.642  -0.030   2.450  0.00  0.00    +0.019 A 
ATOM      2  C   UNL     1       0.193  -0.431   3.724  0.00  0.00    +0.042 A 
ATOM      3  CA  UNL     1       0.645   0.495   4.619  0.00  0.00    +0.102 A 
ATOM      4  N   UNL     1       1.357   1.449   3.927  0.00  0.00    -0.356 N 
ATOM      5  H   UNL     1       1.790   2.224   4.320  0.00  0.00    +0.165 HD
ATOM      6  C   UNL     1       1.363   1.132   2.619  0.00  0.00    +0.093 A 
ENDROOT
BRANCH   1  13
ATOM      7  C   UNL     1       0.271   1.499  -0.012  0.00  0.00    +0.047 C 
ATOM      8  C   UNL     1       0.214  -0.007  -0.014  0.00  0.00    -0.006 A 
ATOM      9  C   UNL     1      -0.011  -0.704  -1.187  0.00  0.00    +0.120 A 
ATOM     10  N   UNL     1      -0.056  -2.027  -1.155  0.00  0.00    -0.222 NA
ATOM     11  C   UNL     1       0.111  -2.689  -0.019  0.00  0.00    +0.220 A 
ATOM     12  N   UNL     1       0.328  -2.061   1.126  0.00  0.00    -0.214 NA
ATOM     13  C   UNL     1       0.392  -0.731   1.168  0.00  0.00    +0.080 A 
ATOM     14  N   UNL     1       0.057  -4.072  -0.030  0.00  0.00    -0.281 N 
ATOM     15  H   UNL     1       0.090  -4.566   0.805  0.00  0.00    +0.155 HD
BRANCH  14  16
ATOM     16  C   UNL     1      -0.045  -4.760  -1.246  0.00  0.00    +0.076 A 
ATOM     17  C   UNL     1       0.533  -4.235  -2.392  0.00  0.00    +0.027 A 
ATOM     18  C   UNL     1       0.431  -4.915  -3.591  0.00  0.00    +0.002 A 
ATOM     19  C   UNL     1      -0.246  -6.119  -3.651  0.00  0.00    +0.004 A 
ATOM     20  C   UNL     1      -0.826  -6.648  -2.513  0.00  0.00    +0.047 A 
ATOM     21  C   UNL     1      -0.722  -5.976  -1.306  0.00  0.00    +0.138 A 
BRANCH  21  22
ATOM     22  O   UNL     1      -1.286  -6.498  -0.184  0.00  0.00    -0.505 OA
ATOM     23  H   UNL     1      -2.201  -6.221  -0.038  0.00  0.00    +0.292 HD
ENDBRANCH  21  22
ENDBRANCH  14  16
ENDBRANCH   1  13
BRANCH   3  24
ATOM     24  C   UNL     1       0.412   0.478   6.068  0.00  0.00    +0.261 C 
ATOM     25  O   UNL     1      -0.237  -0.421   6.569  0.00  0.00    -0.269 OA
ATOM     26  N   UNL     1       0.917   1.458   6.843  0.00  0.00    -0.301 N 
ATOM     27  H   UNL     1       1.434   2.175   6.444  0.00  0.00    +0.150 HD
BRANCH  26  28
ATOM     28  CA  UNL     1       0.684   1.440   8.290  0.00  0.00    +0.129 C 
BRANCH  28  29
ATOM     29  C   UNL     1       1.782   2.205   8.984  0.00  0.00    -0.025 A 
ATOM     30  C   UNL     1       2.259   3.381   8.436  0.00  0.00    +0.005 A 
ATOM     31  C   UNL     1       3.266   4.082   9.073  0.00  0.00    +0.000 A 
ATOM     32  C   UNL     1       3.795   3.607  10.259  0.00  0.00    +0.000 A 
ATOM     33  C   UNL     1       3.317   2.431  10.807  0.00  0.00    +0.000 A 
ATOM     34  C   UNL     1       2.308   1.732  10.172  0.00  0.00    +0.005 A 
ENDBRANCH  28  29
BRANCH  28  35
ATOM     35  C   UNL     1      -0.665   2.093   8.597  0.00  0.00    +0.182 C 
BRANCH  35  36
ATOM     36  O   UNL     1      -0.618   3.476   8.238  0.00  0.00    -0.393 OA
ATOM     37  H   UNL     1      -1.442   3.954   8.406  0.00  0.00    +0.209 HD
ENDBRANCH  35  36
ENDBRANCH  28  35
ENDBRANCH  26  28
ENDBRANCH   3  24
TORSDOF 8
