REMARK  Name = CHEMBL212054
REMARK  3 active torsions:
REMARK  status: ('A' for Active; 'I' for Inactive)
REMARK    1  A    between atoms: C_6  and  N_7
REMARK    2  A    between atoms: C_10  and  N_13
REMARK    3  A    between atoms: C_20  and  C_22
REMARK                            x       y       z     vdW  Elec       q    Type
REMARK                         _______ _______ _______ _____ _____    ______ ____
ROOT
ATOM      1  C   UNL     1      -0.017   1.389  -0.007  0.00  0.00    +0.025 A 
ATOM      2  C   UNL     1       1.149   2.100  -0.015  0.00  0.00    +0.032 A 
ATOM      3  C   UNL     1       2.376   1.430  -0.013  0.00  0.00    +0.090 A 
ATOM      4  C   UNL     1       2.399   0.024  -0.004  0.00  0.00    +0.068 A 
ATOM      5  C   UNL     1       1.208  -0.687   0.004  0.00  0.00    +0.051 A 
ATOM      6  C   UNL     1       0.002  -0.004   0.002  0.00  0.00    +0.032 A 
ATOM      7  N   UNL     1       3.732  -0.341  -0.005  0.00  0.00    -0.337 N 
ATOM      8  C   UNL     1       4.468   0.815  -0.015  0.00  0.00    +0.160 A 
ATOM      9  N   UNL     1       3.666   1.851  -0.019  0.00  0.00    -0.226 NA
ATOM     10  H   UNL     1       4.081  -1.246   0.001  0.00  0.00    +0.167 HD
ENDROOT
BRANCH   8  11
ATOM     11  C   UNL     1       5.943   0.883  -0.018  0.00  0.00    +0.135 A 
ATOM     12  C   UNL     1       6.756   2.105  -0.029  0.00  0.00    +0.031 A 
ATOM     13  C   UNL     1       6.453   3.468  -0.037  0.00  0.00    +0.015 A 
ATOM     14  C   UNL     1       7.461   4.388  -0.046  0.00  0.00    +0.039 A 
ATOM     15  C   UNL     1       8.791   3.980  -0.047  0.00  0.00    +0.125 A 
ATOM     16  C   UNL     1       9.113   2.640  -0.039  0.00  0.00    +0.066 A 
ATOM     17  C   UNL     1       8.098   1.686  -0.029  0.00  0.00    +0.069 A 
ATOM     18  N   UNL     1       8.090   0.314  -0.019  0.00  0.00    -0.276 N 
ATOM     19  N   UNL     1       6.767  -0.140  -0.007  0.00  0.00    -0.170 NA
ATOM     20  H   UNL     1       8.877  -0.252  -0.018  0.00  0.00    +0.189 HD
ATOM     21  F   UNL     1       9.776   4.905  -0.056  0.00  0.00    -0.205 F 
ENDBRANCH   8  11
BRANCH   6  22
ATOM     22  N   UNL     1      -1.201  -0.716   0.010  0.00  0.00    -0.330 N 
ATOM     23  C   UNL     1      -1.204  -2.181  -0.102  0.00  0.00    +0.103 C 
ATOM     24  C   UNL     1      -2.004  -2.763   1.068  0.00  0.00    +0.004 C 
ATOM     25  C   UNL     1      -3.398  -2.132   1.092  0.00  0.00    -0.066 C 
ATOM     26  C   UNL     1      -3.272  -0.621   1.298  0.00  0.00    +0.004 C 
ATOM     27  C   UNL     1      -2.486  -0.015   0.137  0.00  0.00    +0.103 C 
BRANCH  25  28
ATOM     28  N   UNL     1      -4.179  -2.712   2.192  0.00  0.00    +0.382 N 
ATOM     29  C   UNL     1      -4.294  -4.162   1.997  0.00  0.00    -0.078 C 
ATOM     30  C   UNL     1      -5.037  -4.783   3.182  0.00  0.00    -0.019 C 
ATOM     31  C   UNL     1      -6.436  -4.167   3.279  0.00  0.00    -0.004 C 
ATOM     32  C   UNL     1      -6.306  -2.647   3.407  0.00  0.00    -0.019 C 
ATOM     33  C   UNL     1      -5.516  -2.105   2.214  0.00  0.00    -0.078 C 
ATOM     34  H   UNL     1      -3.713  -2.528   3.068  0.00  0.00    -0.081 HD
ENDBRANCH  25  28
ENDBRANCH   6  22
TORSDOF 3
