REMARK  Name = CHEMBL225336
REMARK  8 active torsions:
REMARK  status: ('A' for Active; 'I' for Inactive)
REMARK    1  A    between atoms: C_1  and  N_2
REMARK    2  A    between atoms: N_5  and  C_8
REMARK    3  A    between atoms: C_8  and  C_9
REMARK    4  A    between atoms: C_21  and  C_22
REMARK    5  A    between atoms: C_24  and  C_27
REMARK    6  A    between atoms: C_28  and  C_29
REMARK    7  A    between atoms: C_29  and  N_30
REMARK    8  A    between atoms: N_33  and  C_34
REMARK                            x       y       z     vdW  Elec       q    Type
REMARK                         _______ _______ _______ _____ _____    ______ ____
ROOT
ATOM      1  C   UNL     1      -0.062  -4.415   2.560  0.00  0.00    -0.033 A 
ATOM      2  C   UNL     1       1.293  -4.650   2.713  0.00  0.00    +0.005 A 
ATOM      3  C   UNL     1       1.791  -5.088   3.922  0.00  0.00    +0.010 A 
ATOM      4  C   UNL     1       0.925  -5.297   4.998  0.00  0.00    +0.004 A 
ATOM      5  C   UNL     1      -0.439  -5.057   4.833  0.00  0.00    -0.033 A 
ATOM      6  C   UNL     1      -0.926  -4.614   3.623  0.00  0.00    +0.009 A 
ATOM      7  C   UNL     1      -1.104  -5.367   6.151  0.00  0.00    +0.075 C 
ATOM      8  C   UNL     1       0.005  -5.804   7.077  0.00  0.00    +0.010 A 
ATOM      9  C   UNL     1       1.176  -5.755   6.382  0.00  0.00    +0.070 A 
ATOM     10  N   UNL     1       2.170  -6.153   7.232  0.00  0.00    -0.276 N 
ATOM     11  H   UNL     1       3.113  -6.218   7.015  0.00  0.00    +0.189 HD
ATOM     12  N   UNL     1       1.587  -6.451   8.470  0.00  0.00    -0.173 NA
ATOM     13  C   UNL     1       0.290  -6.242   8.380  0.00  0.00    +0.097 A 
ENDROOT
BRANCH  13  14
ATOM     14  C   UNL     1      -0.700  -6.437   9.470  0.00  0.00    +0.011 A 
ATOM     15  C   UNL     1      -0.543  -7.458  10.393  0.00  0.00    +0.034 A 
ATOM     16  C   UNL     1      -1.480  -7.600  11.381  0.00  0.00    +0.063 A 
ATOM     17  S   UNL     1      -2.616  -6.273  11.016  0.00  0.00    -0.088 S 
ATOM     18  C   UNL     1      -1.783  -5.608   9.584  0.00  0.00    +0.056 A 
BRANCH  16  19
ATOM     19  C   UNL     1      -1.534  -8.566  12.437  0.00  0.00    -0.058 C 
ATOM     20  C   UNL     1      -1.579  -9.357  13.303  0.00  0.00    -0.077 C 
BRANCH  20  21
ATOM     21  C   UNL     1      -1.635 -10.350  14.389  0.00  0.00    +0.195 C 
BRANCH  21  22
ATOM     22  N   UNL     1      -2.826 -10.112  15.207  0.00  0.00    -0.288 N 
ATOM     23  C   UNL     1      -3.086 -10.904  16.266  0.00  0.00    +0.305 C 
ATOM     24  O   UNL     1      -2.331 -11.817  16.542  0.00  0.00    -0.252 OA
ATOM     25  N   UNL     1      -4.181 -10.685  17.020  0.00  0.00    -0.269 N 
ATOM     26  H   UNL     1      -3.428  -9.384  14.987  0.00  0.00    +0.151 HD
ATOM     27  H   UNL     1      -4.747  -9.917  16.841  0.00  0.00    +0.156 HD
BRANCH  25  28
ATOM     28  C   UNL     1      -4.503 -11.565  18.059  0.00  0.00    +0.035 A 
ATOM     29  C   UNL     1      -5.832 -11.844  18.348  0.00  0.00    +0.023 A 
ATOM     30  C   UNL     1      -6.147 -12.713  19.374  0.00  0.00    +0.002 A 
ATOM     31  C   UNL     1      -5.140 -13.304  20.114  0.00  0.00    +0.000 A 
ATOM     32  C   UNL     1      -3.815 -13.028  19.830  0.00  0.00    +0.002 A 
ATOM     33  C   UNL     1      -3.494 -12.164  18.801  0.00  0.00    +0.023 A 
ENDBRANCH  25  28
ENDBRANCH  21  22
ENDBRANCH  20  21
ENDBRANCH  16  19
ENDBRANCH  13  14
BRANCH   1  34
ATOM     34  C   UNL     1      -0.598  -3.936   1.235  0.00  0.00    +0.119 C 
BRANCH  34  39
ATOM     35  C   UNL     1       0.043   1.542   0.080  0.00  0.00    -0.096 C 
ATOM     36  N   UNL     1       0.056   0.073   0.064  0.00  0.00    +0.379 N 
ATOM     37  C   UNL     1      -1.325  -0.428   0.070  0.00  0.00    -0.064 C 
ATOM     38  C   UNL     1      -1.312  -1.958   0.033  0.00  0.00    +0.066 C 
ATOM     39  N   UNL     1      -0.583  -2.467   1.204  0.00  0.00    -0.302 NA
ATOM     40  C   UNL     1       0.794  -1.953   1.225  0.00  0.00    +0.066 C 
ATOM     41  C   UNL     1       0.764  -0.424   1.251  0.00  0.00    -0.064 C 
ATOM     42  H   UNL     1       0.527  -0.250  -0.768  0.00  0.00    -0.082 HD
ENDBRANCH  34  39
ENDBRANCH   1  34
TORSDOF 7
