REMARK  Name = CHEMBL410093
REMARK  4 active torsions:
REMARK  status: ('A' for Active; 'I' for Inactive)
REMARK    1  A    between atoms: C_5  and  O_21
REMARK    2  A    between atoms: C_9  and  C_11
REMARK    3  A    between atoms: N_13  and  C_14
REMARK    4  A    between atoms: O_21  and  C_22
REMARK                            x       y       z     vdW  Elec       q    Type
REMARK                         _______ _______ _______ _____ _____    ______ ____
ROOT
ATOM      1  C   UNL     1       0.175   1.499   0.091  0.00  0.00    +0.001 A 
ATOM      2  C   UNL     1       1.395   2.105   0.048  0.00  0.00    +0.008 A 
ATOM      3  C   UNL     1       2.567   1.331  -0.014  0.00  0.00    -0.014 A 
ATOM      4  C   UNL     1       3.835   1.934  -0.059  0.00  0.00    +0.054 A 
ATOM      5  C   UNL     1       4.953   1.152  -0.118  0.00  0.00    +0.131 A 
ATOM      6  C   UNL     1       4.852  -0.242  -0.135  0.00  0.00    +0.047 A 
ATOM      7  C   UNL     1       3.637  -0.856  -0.092  0.00  0.00    +0.013 A 
ATOM      8  C   UNL     1       2.469  -0.082  -0.030  0.00  0.00    -0.006 A 
ATOM      9  C   UNL     1       1.189  -0.689   0.016  0.00  0.00    +0.045 A 
ATOM     10  C   UNL     1       0.060   0.115   0.076  0.00  0.00    +0.014 A 
ENDROOT
BRANCH   9  11
ATOM     11  C   UNL     1       1.059  -2.157   0.000  0.00  0.00    +0.249 C 
ATOM     12  O   UNL     1       2.053  -2.856   0.048  0.00  0.00    -0.270 OA
ATOM     13  N   UNL     1      -0.162  -2.725  -0.067  0.00  0.00    -0.281 N 
ATOM     14  H   UNL     1      -0.948  -2.171  -0.192  0.00  0.00    +0.155 HD
BRANCH  13  15
ATOM     15  C   UNL     1      -0.295  -4.113   0.043  0.00  0.00    +0.034 A 
ATOM     16  C   UNL     1      -1.377  -4.757  -0.543  0.00  0.00    +0.025 A 
ATOM     17  C   UNL     1      -1.506  -6.128  -0.433  0.00  0.00    +0.022 A 
ATOM     18  C   UNL     1      -0.557  -6.859   0.260  0.00  0.00    +0.041 A 
ATOM     19  C   UNL     1       0.522  -6.220   0.844  0.00  0.00    +0.022 A 
ATOM     20  C   UNL     1       0.659  -4.851   0.732  0.00  0.00    +0.025 A 
ATOM     21 CL   UNL     1      -0.722  -8.582   0.396  0.00  0.00    -0.084 Cl
ENDBRANCH  13  15
ENDBRANCH   9  11
BRANCH   5  22
ATOM     22  O   UNL     1       6.179   1.736  -0.162  0.00  0.00    -0.437 OA
BRANCH  22  23
ATOM     23  C   UNL     1       6.920   1.577  -1.285  0.00  0.00    +0.233 A 
ATOM     24  C   UNL     1       8.233   2.060  -1.353  0.00  0.00    +0.080 A 
ATOM     25  C   UNL     1       9.125   2.769  -0.438  0.00  0.00    +0.034 A 
ATOM     26  C   UNL     1      10.283   2.958  -1.092  0.00  0.00    +0.085 A 
ATOM     27  N   UNL     1      10.198   2.424  -2.352  0.00  0.00    -0.346 N 
ATOM     28  H   UNL     1      10.909   2.438  -3.011  0.00  0.00    +0.167 HD
ATOM     29  C   UNL     1       8.962   1.869  -2.543  0.00  0.00    +0.145 A 
ATOM     30  N   UNL     1       8.372   1.239  -3.556  0.00  0.00    -0.218 NA
ATOM     31  C   UNL     1       7.136   0.804  -3.447  0.00  0.00    +0.227 A 
ATOM     32  N   UNL     1       6.421   0.954  -2.347  0.00  0.00    -0.200 NA
ENDBRANCH  22  23
ENDBRANCH   5  22
TORSDOF 4
