REMARK  Name = CHEMBL369322
REMARK  11 active torsions:
REMARK  status: ('A' for Active; 'I' for Inactive)
REMARK    1  A    between atoms: C_1  and  C_2
REMARK    2  A    between atoms: C_5  and  N_9
REMARK    3  A    between atoms: C_7  and  O_8
REMARK    4  A    between atoms: C_12  and  C_29
REMARK    5  A    between atoms: C_13  and  O_19
REMARK    6  A    between atoms: O_19  and  C_20
REMARK    7  A    between atoms: C_20  and  C_21
REMARK    8  A    between atoms: C_21  and  C_22
REMARK    9  A    between atoms: C_22  and  N_23
REMARK   10  A    between atoms: C_29  and  C_30
REMARK   11  A    between atoms: C_29  and  C_31
REMARK                            x       y       z     vdW  Elec       q    Type
REMARK                         _______ _______ _______ _____ _____    ______ ____
ROOT
ATOM      1  N   UNL     1       0.140  -4.178  -0.029  0.00  0.00    -0.298 N 
ATOM      2  C   UNL     1       0.025  -4.860  -1.226  0.00  0.00    +0.151 A 
ATOM      3  C   UNL     1      -0.106  -6.267  -1.238  0.00  0.00    +0.112 A 
ATOM      4  C   UNL     1      -0.155  -7.231  -0.249  0.00  0.00    +0.027 A 
ATOM      5  C   UNL     1      -0.297  -8.466  -0.890  0.00  0.00    +0.144 A 
ATOM      6  C   UNL     1      -0.333  -8.239  -2.233  0.00  0.00    +0.159 A 
ATOM      7  N   UNL     1      -0.218  -6.909  -2.457  0.00  0.00    -0.231 N 
ATOM      8  N   UNL     1      -0.194  -6.131  -3.623  0.00  0.00    -0.155 NA
ATOM      9  C   UNL     1      -0.070  -4.835  -3.542  0.00  0.00    +0.245 A 
ATOM     10  N   UNL     1       0.033  -4.202  -2.374  0.00  0.00    -0.217 NA
ATOM     11  H   UNL     1       0.038  -4.653   0.810  0.00  0.00    +0.154 HD
ENDROOT
BRANCH   1  16
ATOM     12  C   UNL     1       1.196   1.398  -0.038  0.00  0.00    +0.047 C 
ATOM     13  C   UNL     1       0.916  -0.083  -0.035  0.00  0.00    -0.009 A 
ATOM     14  C   UNL     1       0.432  -0.697  -1.175  0.00  0.00    +0.009 A 
ATOM     15  C   UNL     1       0.174  -2.053  -1.176  0.00  0.00    +0.024 A 
ATOM     16  C   UNL     1       0.401  -2.805  -0.029  0.00  0.00    +0.036 A 
ATOM     17  C   UNL     1       0.888  -2.191   1.117  0.00  0.00    +0.069 A 
ATOM     18  C   UNL     1       1.150  -0.830   1.111  0.00  0.00    +0.122 A 
BRANCH  18  19
ATOM     19  O   UNL     1       1.631  -0.226   2.230  0.00  0.00    -0.506 OA
ATOM     20  H   UNL     1       0.944   0.105   2.824  0.00  0.00    +0.292 HD
ENDBRANCH  18  19
ENDBRANCH   1  16
BRANCH   4  21
ATOM     21  C   UNL     1      -0.069  -6.996   1.237  0.00  0.00    +0.019 C 
ATOM     22  C   UNL     1      -1.266  -7.653   1.927  0.00  0.00    +0.012 C 
ATOM     23  C   UNL     1       1.227  -7.604   1.775  0.00  0.00    +0.012 C 
ENDBRANCH   4  21
BRANCH   5  24
ATOM     24  O   UNL     1      -0.385  -9.680  -0.279  0.00  0.00    -0.490 OA
BRANCH  24  25
ATOM     25  C   UNL     1      -0.527 -10.822  -1.125  0.00  0.00    +0.227 C 
BRANCH  25  26
ATOM     26  C   UNL     1      -0.609 -12.086  -0.267  0.00  0.00    +0.022 C 
BRANCH  26  27
ATOM     27  C   UNL     1      -0.761 -13.309  -1.172  0.00  0.00    -0.076 C 
BRANCH  27  28
ATOM     28  N   UNL     1      -0.840 -14.523  -0.348  0.00  0.00    +0.380 N 
ATOM     29  C   UNL     1       0.430 -14.712   0.364  0.00  0.00    -0.079 C 
ATOM     30  C   UNL     1       0.326 -15.928   1.286  0.00  0.00    -0.019 C 
ATOM     31  C   UNL     1       0.019 -17.172   0.448  0.00  0.00    -0.004 C 
ATOM     32  C   UNL     1      -1.268 -16.935  -0.347  0.00  0.00    -0.019 C 
ATOM     33  C   UNL     1      -1.105 -15.681  -1.208  0.00  0.00    -0.079 C 
ATOM     34  H   UNL     1      -1.587 -14.425   0.323  0.00  0.00    -0.082 HD
ENDBRANCH  27  28
ENDBRANCH  26  27
ENDBRANCH  25  26
ENDBRANCH  24  25
ENDBRANCH   5  24
TORSDOF 8
