REMARK  Name = CHEMBL231469
REMARK  8 active torsions:
REMARK  status: ('A' for Active; 'I' for Inactive)
REMARK    1  A    between atoms: C_1  and  N_2
REMARK    2  A    between atoms: C_3  and  C_5
REMARK    3  A    between atoms: C_7  and  O_11
REMARK    4  A    between atoms: O_11  and  C_12
REMARK    5  A    between atoms: N_21  and  C_22
REMARK    6  A    between atoms: C_26  and  C_28
REMARK    7  A    between atoms: C_28  and  N_29
REMARK    8  A    between atoms: N_32  and  C_35
REMARK                            x       y       z     vdW  Elec       q    Type
REMARK                         _______ _______ _______ _____ _____    ______ ____
ROOT
ATOM      1  C   UNL     1       4.206  -6.617  -2.376  0.00  0.00    +0.131 A 
ATOM      2  C   UNL     1       3.928  -7.384  -1.249  0.00  0.00    +0.050 A 
ATOM      3  C   UNL     1       3.611  -8.720  -1.375  0.00  0.00    +0.052 A 
ATOM      4  C   UNL     1       3.567  -9.306  -2.630  0.00  0.00    +0.157 A 
ATOM      5  C   UNL     1       3.845  -8.538  -3.771  0.00  0.00    +0.115 A 
ATOM      6  C   UNL     1       4.160  -7.186  -3.635  0.00  0.00    +0.078 A 
ATOM      7  N   UNL     1       3.725  -9.372  -4.840  0.00  0.00    -0.195 NA
ATOM      8  C   UNL     1       3.399 -10.564  -4.410  0.00  0.00    +0.293 A 
ATOM      9  O   UNL     1       3.295 -10.557  -3.069  0.00  0.00    -0.424 OA
ATOM     10  N   UNL     1       3.193 -11.664  -5.213  0.00  0.00    -0.269 N 
ATOM     11  H   UNL     1       3.380 -11.613  -6.163  0.00  0.00    +0.157 HD
ENDROOT
BRANCH  10  12
ATOM     12  C   UNL     1       2.715 -12.855  -4.657  0.00  0.00    +0.035 A 
ATOM     13  C   UNL     1       1.947 -12.824  -3.500  0.00  0.00    +0.025 A 
ATOM     14  C   UNL     1       1.476 -14.002  -2.954  0.00  0.00    +0.022 A 
ATOM     15  C   UNL     1       1.769 -15.212  -3.557  0.00  0.00    +0.045 A 
ATOM     16  C   UNL     1       2.534 -15.246  -4.710  0.00  0.00    -0.013 A 
ATOM     17  C   UNL     1       3.003 -14.071  -5.264  0.00  0.00    +0.029 A 
ATOM     18 CL   UNL     1       1.177 -16.691  -2.867  0.00  0.00    -0.083 Cl
BRANCH  16  19
ATOM     19  C   UNL     1       2.852 -16.566  -5.364  0.00  0.00    +0.121 C 
BRANCH  19  20
ATOM     20  N   UNL     1       3.881 -17.265  -4.581  0.00  0.00    -0.302 NA
ATOM     21  C   UNL     1       5.159 -16.542  -4.626  0.00  0.00    +0.066 C 
ATOM     22  C   UNL     1       6.184 -17.269  -3.753  0.00  0.00    -0.064 C 
ATOM     23  N   UNL     1       6.361 -18.642  -4.245  0.00  0.00    +0.379 N 
ATOM     24  C   UNL     1       5.081 -19.359  -4.171  0.00  0.00    -0.064 C 
ATOM     25  C   UNL     1       4.047 -18.649  -5.048  0.00  0.00    +0.066 C 
ATOM     26  C   UNL     1       7.358 -19.334  -3.418  0.00  0.00    -0.096 C 
ATOM     27  H   UNL     1       6.678 -18.617  -5.203  0.00  0.00    -0.082 HD
ENDBRANCH  19  20
ENDBRANCH  16  19
ENDBRANCH  10  12
BRANCH   1  28
ATOM     28  O   UNL     1       4.518  -5.300  -2.239  0.00  0.00    -0.456 OA
BRANCH  28  31
ATOM     29  C   UNL     1       7.923  -5.608  -0.968  0.00  0.00    +0.129 A 
ATOM     30  C   UNL     1       6.657  -5.977  -1.410  0.00  0.00    +0.079 A 
ATOM     31  C   UNL     1       5.763  -4.983  -1.801  0.00  0.00    +0.132 A 
ATOM     32  C   UNL     1       6.178  -3.656  -1.732  0.00  0.00    +0.066 A 
ATOM     33  C   UNL     1       7.453  -3.368  -1.282  0.00  0.00    +0.115 A 
ATOM     34  N   UNL     1       8.274  -4.329  -0.913  0.00  0.00    -0.250 NA
BRANCH  29  37
ATOM     35  C   UNL     1      11.066  -7.335   0.303  0.00  0.00    +0.128 C 
ATOM     36  N   UNL     1      10.113  -6.302  -0.113  0.00  0.00    -0.313 N 
ATOM     37  C   UNL     1       8.886  -6.653  -0.547  0.00  0.00    +0.262 C 
ATOM     38  O   UNL     1       8.570  -7.825  -0.595  0.00  0.00    -0.269 OA
ATOM     39  H   UNL     1      10.365  -5.366  -0.075  0.00  0.00    +0.149 HD
ENDBRANCH  29  37
ENDBRANCH  28  31
ENDBRANCH   1  28
TORSDOF 6
