REMARK  Name = CHEMBL243908
REMARK  7 active torsions:
REMARK  status: ('A' for Active; 'I' for Inactive)
REMARK    1  A    between atoms: C_1  and  O_2
REMARK    2  A    between atoms: O_2  and  C_3
REMARK    3  A    between atoms: C_3  and  N_5
REMARK    4  A    between atoms: C_11  and  O_16
REMARK    5  A    between atoms: O_16  and  C_17
REMARK    6  A    between atoms: C_20  and  N_23
REMARK    7  A    between atoms: N_26  and  C_27
REMARK                            x       y       z     vdW  Elec       q    Type
REMARK                         _______ _______ _______ _____ _____    ______ ____
ROOT
ATOM      1  C   UNL     1       4.812  -6.571   7.372  0.00  0.00    +0.129 A 
ATOM      2  C   UNL     1       5.257  -5.364   7.892  0.00  0.00    +0.048 A 
ATOM      3  C   UNL     1       6.056  -5.349   9.018  0.00  0.00    +0.027 A 
ATOM      4  C   UNL     1       6.414  -6.543   9.630  0.00  0.00    +0.035 A 
ATOM      5  C   UNL     1       5.969  -7.751   9.109  0.00  0.00    +0.027 A 
ATOM      6  C   UNL     1       5.166  -7.763   7.986  0.00  0.00    +0.048 A 
ENDROOT
BRANCH   4   7
ATOM      7  N   UNL     1       7.226  -6.530  10.773  0.00  0.00    -0.269 N 
ATOM      8  C   UNL     1       7.109  -5.530  11.669  0.00  0.00    +0.308 C 
ATOM      9  O   UNL     1       6.235  -4.696  11.540  0.00  0.00    -0.252 OA
ATOM     10  N   UNL     1       7.963  -5.456  12.710  0.00  0.00    -0.269 N 
ATOM     11  H   UNL     1       7.871  -7.239  10.918  0.00  0.00    +0.156 HD
ATOM     12  H   UNL     1       8.709  -6.073  12.771  0.00  0.00    +0.156 HD
BRANCH  10  13
ATOM     13  C   UNL     1       7.773  -4.488  13.703  0.00  0.00    +0.036 A 
ATOM     14  C   UNL     1       6.488  -4.117  14.076  0.00  0.00    +0.023 A 
ATOM     15  C   UNL     1       6.303  -3.162  15.056  0.00  0.00    +0.003 A 
ATOM     16  C   UNL     1       7.397  -2.574  15.666  0.00  0.00    +0.015 A 
ATOM     17  C   UNL     1       8.678  -2.942  15.297  0.00  0.00    +0.020 A 
ATOM     18  C   UNL     1       8.869  -3.902  14.321  0.00  0.00    +0.038 A 
ATOM     19 BR   UNL     1      10.171  -2.136  16.134  0.00  0.00    -0.050 Br
ENDBRANCH  10  13
ENDBRANCH   4   7
BRANCH   1  20
ATOM     20  O   UNL     1       4.026  -6.584   6.263  0.00  0.00    -0.456 OA
BRANCH  20  27
ATOM     21  N   UNL     1       0.844 -12.926   5.327  0.00  0.00    -0.109 NA
ATOM     22  C   UNL     1       1.562 -11.809   5.287  0.00  0.00    +0.201 A 
ATOM     23  N   UNL     1       1.491 -10.795   6.191  0.00  0.00    -0.326 N 
ATOM     24  H   UNL     1       0.912 -10.766   6.969  0.00  0.00    +0.169 HD
ATOM     25  C   UNL     1       2.393  -9.806   5.809  0.00  0.00    +0.069 A 
ATOM     26  C   UNL     1       2.733  -8.575   6.352  0.00  0.00    +0.074 A 
ATOM     27  C   UNL     1       3.691  -7.790   5.732  0.00  0.00    +0.131 A 
ATOM     28  C   UNL     1       4.311  -8.232   4.571  0.00  0.00    +0.048 A 
ATOM     29  C   UNL     1       3.976  -9.455   4.026  0.00  0.00    +0.031 A 
ATOM     30  C   UNL     1       3.018 -10.248   4.641  0.00  0.00    +0.066 A 
ATOM     31  N   UNL     1       2.487 -11.500   4.340  0.00  0.00    -0.326 N 
ATOM     32  H   UNL     1       2.733 -12.056   3.584  0.00  0.00    +0.169 HD
BRANCH  21  33
ATOM     33  C   UNL     1       1.078 -13.902   4.445  0.00  0.00    +0.427 C 
ATOM     34  O   UNL     1       1.883 -13.731   3.547  0.00  0.00    -0.224 OA
BRANCH  33  36
ATOM     35  C   UNL     1       0.721 -16.076   3.571  0.00  0.00    +0.282 C 
ATOM     36  O   UNL     1       0.422 -15.077   4.548  0.00  0.00    -0.452 OA
ENDBRANCH  33  36
ENDBRANCH  21  33
ENDBRANCH  20  27
ENDBRANCH   1  20
TORSDOF 6
