REMARK  Name = CHEMBL1202477
REMARK  9 active torsions:
REMARK  status: ('A' for Active; 'I' for Inactive)
REMARK    1  A    between atoms: C_1  and  N_2
REMARK    2  A    between atoms: N_5  and  C_8
REMARK    3  A    between atoms: C_8  and  C_9
REMARK    4  A    between atoms: C_9  and  C_10
REMARK    5  A    between atoms: C_10  and  O_11
REMARK    6  A    between atoms: O_11  and  C_12
REMARK    7  A    between atoms: C_17  and  O_18
REMARK    8  A    between atoms: O_18  and  C_19
REMARK    9  A    between atoms: N_24  and  C_25
REMARK                            x       y       z     vdW  Elec       q    Type
REMARK                         _______ _______ _______ _____ _____    ______ ____
ROOT
ATOM      1  C   UNL     1       1.802  -8.008   3.249  0.00  0.00    +0.164 A 
ATOM      2  C   UNL     1       1.477  -8.815   2.181  0.00  0.00    +0.078 A 
ATOM      3  C   UNL     1       1.357 -10.197   2.372  0.00  0.00    +0.080 A 
ATOM      4  C   UNL     1       1.574 -10.743   3.662  0.00  0.00    +0.044 A 
ATOM      5  C   UNL     1       1.904  -9.900   4.730  0.00  0.00    +0.062 A 
ATOM      6  C   UNL     1       2.020  -8.556   4.520  0.00  0.00    +0.162 A 
ATOM      7  C   UNL     1       1.447 -12.143   3.824  0.00  0.00    +0.134 A 
ATOM      8  N   UNL     1       1.132 -12.872   2.761  0.00  0.00    -0.220 NA
ATOM      9  C   UNL     1       0.939 -12.317   1.575  0.00  0.00    +0.223 A 
ATOM     10  N   UNL     1       1.043 -11.026   1.365  0.00  0.00    -0.235 NA
ATOM     11  N   UNL     1       1.646 -12.735   5.054  0.00  0.00    -0.297 N 
ATOM     12  H   UNL     1       1.782 -12.184   5.841  0.00  0.00    +0.154 HD
ENDROOT
BRANCH  11  13
ATOM     13  C   UNL     1       1.650 -14.130   5.168  0.00  0.00    +0.068 A 
ATOM     14  C   UNL     1       1.847 -14.918   4.042  0.00  0.00    +0.027 A 
ATOM     15  C   UNL     1       1.850 -16.295   4.157  0.00  0.00    +0.017 A 
ATOM     16  C   UNL     1       1.659 -16.889   5.391  0.00  0.00    +0.021 A 
ATOM     17  C   UNL     1       1.462 -16.107   6.516  0.00  0.00    +0.055 A 
ATOM     18  C   UNL     1       1.463 -14.729   6.409  0.00  0.00    +0.145 A 
ATOM     19  F   UNL     1       1.277 -13.965   7.508  0.00  0.00    -0.204 F 
ATOM     20 BR   UNL     1       1.664 -18.774   5.542  0.00  0.00    -0.050 Br
ENDBRANCH  11  13
BRANCH   6  21
ATOM     21  O   UNL     1       2.347  -7.739   5.558  0.00  0.00    -0.491 OA
ATOM     22  C   UNL     1       2.557  -8.357   6.829  0.00  0.00    +0.277 C 
ENDBRANCH   6  21
BRANCH   1  23
ATOM     23  O   UNL     1       1.918  -6.666   3.066  0.00  0.00    -0.488 OA
BRANCH  23  24
ATOM     24  C   UNL     1       1.684  -6.168   1.747  0.00  0.00    +0.227 C 
BRANCH  24  25
ATOM     25  C   UNL     1       1.859  -4.649   1.737  0.00  0.00    +0.022 C 
BRANCH  25  26
ATOM     26  C   UNL     1       1.608  -4.115   0.326  0.00  0.00    -0.075 C 
BRANCH  26  31
ATOM     27  C   UNL     1       3.173   1.192  -0.739  0.00  0.00    +0.104 C 
ATOM     28  N   UNL     1       2.968  -0.262  -0.688  0.00  0.00    -0.309 NA
ATOM     29  C   UNL     1       1.577  -0.609  -1.013  0.00  0.00    +0.065 C 
ATOM     30  C   UNL     1       1.420  -2.131  -1.008  0.00  0.00    -0.063 C 
ATOM     31  N   UNL     1       1.777  -2.656   0.316  0.00  0.00    +0.381 N 
ATOM     32  C   UNL     1       3.175  -2.323   0.616  0.00  0.00    -0.063 C 
ATOM     33  C   UNL     1       3.347  -0.803   0.625  0.00  0.00    +0.065 C 
ATOM     34  H   UNL     1       1.176  -2.244   1.014  0.00  0.00    -0.082 HD
ENDBRANCH  26  31
ENDBRANCH  25  26
ENDBRANCH  24  25
ENDBRANCH  23  24
ENDBRANCH   1  23
TORSDOF 7
