REMARK  Name = CHEMBL194911
REMARK  7 active torsions:
REMARK  status: ('A' for Active; 'I' for Inactive)
REMARK    1  A    between atoms: C_1  and  O_2
REMARK    2  A    between atoms: O_2  and  C_3
REMARK    3  A    between atoms: C_6  and  C_9
REMARK    4  A    between atoms: C_10  and  C_19
REMARK    5  A    between atoms: C_22  and  N_25
REMARK    6  A    between atoms: N_28  and  C_29
REMARK    7  A    between atoms: C_31  and  C_36
REMARK                            x       y       z     vdW  Elec       q    Type
REMARK                         _______ _______ _______ _____ _____    ______ ____
ROOT
ATOM      1  C   UNL     1       2.138  -4.775  -3.460  0.00  0.00    -0.013 A 
ATOM      2  C   UNL     1       3.135  -5.447  -2.752  0.00  0.00    +0.010 A 
ATOM      3  C   UNL     1       2.798  -6.466  -1.888  0.00  0.00    +0.024 A 
ATOM      4  C   UNL     1       1.466  -6.824  -1.720  0.00  0.00    +0.035 A 
ATOM      5  C   UNL     1       0.470  -6.157  -2.422  0.00  0.00    +0.024 A 
ATOM      6  C   UNL     1       0.800  -5.133  -3.285  0.00  0.00    +0.010 A 
ENDROOT
BRANCH   1   8
ATOM      7  C   UNL     1       2.208  -2.349  -4.249  0.00  0.00    +0.146 A 
ATOM      8  C   UNL     1       2.496  -3.680  -4.389  0.00  0.00    +0.041 A 
ATOM      9  C   UNL     1       3.237  -3.795  -5.652  0.00  0.00    +0.088 A 
ATOM     10  C   UNL     1       3.816  -4.848  -6.373  0.00  0.00    +0.131 A 
ATOM     11  N   UNL     1       4.428  -4.564  -7.521  0.00  0.00    -0.220 NA
ATOM     12  C   UNL     1       4.489  -3.323  -7.968  0.00  0.00    +0.227 A 
ATOM     13  N   UNL     1       3.959  -2.307  -7.321  0.00  0.00    -0.200 NA
ATOM     14  C   UNL     1       3.325  -2.491  -6.165  0.00  0.00    +0.233 A 
ATOM     15  O   UNL     1       2.698  -1.669  -5.305  0.00  0.00    -0.436 OA
ATOM     16  N   UNL     1       3.753  -6.148  -5.905  0.00  0.00    -0.342 N 
ATOM     17  H   UNL     1       3.304  -6.340  -5.067  0.00  0.00    +0.144 HD
ATOM     18  H   UNL     1       4.158  -6.867  -6.415  0.00  0.00    +0.144 HD
BRANCH   7  22
ATOM     19  C   UNL     1       0.079  -0.631  -1.002  0.00  0.00    +0.120 A 
ATOM     20  C   UNL     1       1.105  -1.534  -0.756  0.00  0.00    +0.046 A 
ATOM     21  C   UNL     1       1.799  -2.094  -1.807  0.00  0.00    +0.015 A 
ATOM     22  C   UNL     1       1.468  -1.753  -3.121  0.00  0.00    +0.018 A 
ATOM     23  C   UNL     1       0.434  -0.844  -3.364  0.00  0.00    +0.015 A 
ATOM     24  C   UNL     1      -0.257  -0.292  -2.307  0.00  0.00    +0.046 A 
BRANCH  19  26
ATOM     25  C   UNL     1      -0.205  -0.472   1.353  0.00  0.00    +0.277 C 
ATOM     26  O   UNL     1      -0.602  -0.081   0.037  0.00  0.00    -0.495 OA
ENDBRANCH  19  26
ENDBRANCH   7  22
ENDBRANCH   1   8
BRANCH   4  27
ATOM     27  N   UNL     1       1.127  -7.859  -0.841  0.00  0.00    -0.269 N 
ATOM     28  C   UNL     1       1.822  -8.029   0.301  0.00  0.00    +0.308 C 
ATOM     29  O   UNL     1       2.795  -7.337   0.528  0.00  0.00    -0.252 OA
ATOM     30  N   UNL     1       1.438  -8.966   1.190  0.00  0.00    -0.267 N 
ATOM     31  H   UNL     1       0.391  -8.455  -1.054  0.00  0.00    +0.156 HD
ATOM     32  H   UNL     1       0.702  -9.561   0.981  0.00  0.00    +0.156 HD
BRANCH  30  33
ATOM     33  C   UNL     1       2.103  -9.080   2.418  0.00  0.00    +0.071 A 
ATOM     34  C   UNL     1       3.434  -8.700   2.526  0.00  0.00    +0.038 A 
ATOM     35  C   UNL     1       4.087  -8.813   3.739  0.00  0.00    +0.057 A 
ATOM     36  C   UNL     1       3.417  -9.304   4.844  0.00  0.00    +0.015 A 
ATOM     37  C   UNL     1       2.091  -9.684   4.741  0.00  0.00    +0.041 A 
ATOM     38  C   UNL     1       1.429  -9.568   3.532  0.00  0.00    +0.145 A 
ATOM     39  F   UNL     1       0.133  -9.934   3.433  0.00  0.00    -0.204 F 
BRANCH  35  40
ATOM     40  C   UNL     1       5.531  -8.401   3.856  0.00  0.00    +0.417 C 
ATOM     41  F   UNL     1       5.603  -7.049   4.209  0.00  0.00    -0.166 F 
ATOM     42  F   UNL     1       6.158  -9.174   4.840  0.00  0.00    -0.166 F 
ATOM     43  F   UNL     1       6.174  -8.598   2.629  0.00  0.00    -0.166 F 
ENDBRANCH  35  40
ENDBRANCH  30  33
ENDBRANCH   4  27
TORSDOF 6
