REMARK  Name = CHEMBL189408
REMARK  10 active torsions:
REMARK  status: ('A' for Active; 'I' for Inactive)
REMARK    1  A    between atoms: C_1  and  N_2
REMARK    2  A    between atoms: N_2  and  C_3
REMARK    3  A    between atoms: C_6  and  N_9
REMARK    4  A    between atoms: N_12  and  C_13
REMARK    5  A    between atoms: C_13  and  C_14
REMARK    6  A    between atoms: C_14  and  C_15
REMARK    7  A    between atoms: N_27  and  C_28
REMARK    8  A    between atoms: C_32  and  C_34
REMARK    9  A    between atoms: C_34  and  S_35
REMARK   10  A    between atoms: S_35  and  C_38
REMARK                            x       y       z     vdW  Elec       q    Type
REMARK                         _______ _______ _______ _____ _____    ______ ____
ROOT
ATOM      1  C   UNL     1       1.284   0.535  -0.038  0.00  0.00    +0.137 C 
ATOM      2  N   UNL     1       0.620  -0.770  -0.068  0.00  0.00    -0.288 N 
ATOM      3  C   UNL     1       0.444  -1.431  -1.274  0.00  0.00    +0.130 A 
ATOM      4  C   UNL     1       1.056  -0.958  -2.437  0.00  0.00    +0.061 A 
ATOM      5  C   UNL     1       0.854  -1.649  -3.616  0.00  0.00    +0.089 A 
ATOM      6  N   UNL     1       0.091  -2.732  -3.609  0.00  0.00    -0.334 N 
ATOM      7  C   UNL     1      -0.478  -3.158  -2.491  0.00  0.00    +0.199 A 
ATOM      8  N   UNL     1      -0.304  -2.528  -1.339  0.00  0.00    -0.201 NA
ATOM      9  N   UNL     1      -1.268  -4.295  -2.526  0.00  0.00    -0.285 N 
ATOM     10  H   UNL     1      -1.770  -4.561  -1.740  0.00  0.00    +0.155 HD
ATOM     11  H   UNL     1      -0.054  -3.220  -4.435  0.00  0.00    +0.168 HD
ENDROOT
BRANCH   2  12
ATOM     12  C   UNL     1       0.162  -1.350   1.121  0.00  0.00    +0.035 A 
ATOM     13  C   UNL     1      -0.806  -0.706   1.881  0.00  0.00    +0.025 A 
ATOM     14  C   UNL     1      -1.257  -1.278   3.053  0.00  0.00    +0.025 A 
ATOM     15  C   UNL     1      -0.743  -2.497   3.474  0.00  0.00    +0.035 A 
ATOM     16  C   UNL     1       0.225  -3.142   2.714  0.00  0.00    +0.025 A 
ATOM     17  C   UNL     1       0.672  -2.573   1.538  0.00  0.00    +0.025 A 
BRANCH  15  18
ATOM     18  N   UNL     1      -1.200  -3.078   4.664  0.00  0.00    -0.269 N 
ATOM     19  C   UNL     1      -0.346  -3.759   5.454  0.00  0.00    +0.304 C 
ATOM     20  O   UNL     1       0.809  -3.915   5.107  0.00  0.00    -0.253 OA
ATOM     21  N   UNL     1      -0.772  -4.266   6.628  0.00  0.00    -0.299 N 
ATOM     22  H   UNL     1      -2.132  -2.989   4.920  0.00  0.00    +0.156 HD
ATOM     23  H   UNL     1      -1.693  -4.141   6.904  0.00  0.00    +0.150 HD
BRANCH  21  24
ATOM     24  C   UNL     1       0.156  -5.006   7.486  0.00  0.00    +0.110 C 
BRANCH  24  25
ATOM     25  C   UNL     1      -0.575  -5.470   8.747  0.00  0.00    +0.054 C 
BRANCH  25  26
ATOM     26  C   UNL     1       0.380  -6.232   9.630  0.00  0.00    -0.046 A 
ATOM     27  C   UNL     1       0.519  -7.599   9.480  0.00  0.00    +0.004 A 
ATOM     28  C   UNL     1       1.395  -8.297  10.290  0.00  0.00    +0.000 A 
ATOM     29  C   UNL     1       2.133  -7.628  11.249  0.00  0.00    +0.000 A 
ATOM     30  C   UNL     1       1.995  -6.261  11.398  0.00  0.00    +0.000 A 
ATOM     31  C   UNL     1       1.122  -5.562  10.585  0.00  0.00    +0.004 A 
ENDBRANCH  25  26
ENDBRANCH  24  25
ENDBRANCH  21  24
ENDBRANCH  15  18
ENDBRANCH   2  12
BRANCH   9  32
ATOM     32  C   UNL     1      -1.343  -5.059  -3.695  0.00  0.00    +0.034 A 
ATOM     33  C   UNL     1      -0.204  -5.275  -4.459  0.00  0.00    +0.023 A 
ATOM     34  C   UNL     1      -0.281  -6.030  -5.613  0.00  0.00    +0.002 A 
ATOM     35  C   UNL     1      -1.492  -6.570  -6.008  0.00  0.00    +0.005 A 
ATOM     36  C   UNL     1      -2.628  -6.356  -5.250  0.00  0.00    -0.025 A 
ATOM     37  C   UNL     1      -2.556  -5.607  -4.091  0.00  0.00    +0.028 A 
BRANCH  36  38
ATOM     38  C   UNL     1      -3.945  -6.945  -5.685  0.00  0.00    +0.200 C 
BRANCH  38  39
ATOM     39  S   UNL     1      -4.139  -8.595  -4.957  0.00  0.00    -0.030 S 
ATOM     40  O   UNL     1      -3.142  -9.447  -5.505  0.00  0.00    -0.174 OA
ATOM     41  O   UNL     1      -4.231  -8.457  -3.546  0.00  0.00    -0.174 OA
ATOM     42  C   UNL     1      -5.755  -9.124  -5.589  0.00  0.00    +0.194 C 
ENDBRANCH  38  39
ENDBRANCH  36  38
ENDBRANCH   9  32
TORSDOF 8
