REMARK  Name = CHEMBL209704
REMARK  6 active torsions:
REMARK  status: ('A' for Active; 'I' for Inactive)
REMARK    1  A    between atoms: C_4  and  C_7
REMARK    2  A    between atoms: C_7  and  O_8
REMARK    3  A    between atoms: O_8  and  C_9
REMARK    4  A    between atoms: C_18  and  C_19
REMARK    5  A    between atoms: C_25  and  N_29
REMARK    6  A    between atoms: C_32  and  N_35
REMARK                            x       y       z     vdW  Elec       q    Type
REMARK                         _______ _______ _______ _____ _____    ______ ____
ROOT
ATOM      1  C   UNL     1      10.008  -4.200   1.452  0.00  0.00    +0.160 A 
ATOM      2  N   UNL     1      11.110  -4.846   1.945  0.00  0.00    -0.337 N 
ATOM      3  H   UNL     1      11.325  -4.985   2.881  0.00  0.00    +0.167 HD
ATOM      4  C   UNL     1      11.858  -5.264   0.859  0.00  0.00    +0.067 A 
ATOM      5  C   UNL     1      13.054  -5.955   0.726  0.00  0.00    +0.029 A 
ATOM      6  C   UNL     1      13.557  -6.227  -0.528  0.00  0.00    +0.025 A 
ATOM      7  C   UNL     1      12.870  -5.812  -1.668  0.00  0.00    +0.032 A 
ATOM      8  C   UNL     1      11.678  -5.122  -1.553  0.00  0.00    +0.053 A 
ATOM      9  C   UNL     1      11.159  -4.841  -0.285  0.00  0.00    +0.091 A 
ATOM     10  N   UNL     1      10.041  -4.205   0.141  0.00  0.00    -0.226 NA
ENDROOT
BRANCH   1  20
ATOM     11  C   UNL     1       5.364  -1.525   1.468  0.00  0.00    +0.123 A 
ATOM     12  C   UNL     1       6.090  -1.930   0.348  0.00  0.00    +0.046 A 
ATOM     13  C   UNL     1       7.265  -2.608   0.493  0.00  0.00    +0.016 A 
ATOM     14  C   UNL     1       7.747  -2.901   1.771  0.00  0.00    +0.031 A 
ATOM     15  C   UNL     1       7.021  -2.495   2.905  0.00  0.00    +0.070 A 
ATOM     16  C   UNL     1       5.826  -1.799   2.740  0.00  0.00    +0.073 A 
ATOM     17  N   UNL     1       7.727  -2.914   4.004  0.00  0.00    -0.276 N 
ATOM     18  N   UNL     1       8.885  -3.577   3.584  0.00  0.00    -0.170 NA
ATOM     19  H   UNL     1       7.465  -2.773   4.927  0.00  0.00    +0.189 HD
ATOM     20  C   UNL     1       8.941  -3.594   2.273  0.00  0.00    +0.135 A 
BRANCH  11  21
ATOM     21  O   UNL     1       4.196  -0.851   1.305  0.00  0.00    -0.487 OA
BRANCH  21  22
ATOM     22  C   UNL     1       3.773  -0.599  -0.036  0.00  0.00    +0.264 C 
BRANCH  22  26
ATOM     23  C   UNL     1       0.072   1.534   0.011  0.00  0.00    +0.000 A 
ATOM     24  C   UNL     1       1.268   2.226   0.011  0.00  0.00    +0.000 A 
ATOM     25  C   UNL     1       2.466   1.536  -0.004  0.00  0.00    +0.007 A 
ATOM     26  C   UNL     1       2.467   0.154  -0.019  0.00  0.00    -0.010 A 
ATOM     27  C   UNL     1       1.270  -0.538  -0.017  0.00  0.00    +0.007 A 
ATOM     28  C   UNL     1       0.073   0.152  -0.004  0.00  0.00    +0.000 A 
ENDBRANCH  22  26
ENDBRANCH  21  22
ENDBRANCH  11  21
ENDBRANCH   1  20
BRANCH   7  29
ATOM     29  N   UNL     1      13.392  -6.093  -2.935  0.00  0.00    -0.330 N 
ATOM     30  C   UNL     1      12.627  -5.772  -4.148  0.00  0.00    +0.103 C 
ATOM     31  C   UNL     1      13.503  -4.920  -5.072  0.00  0.00    +0.004 C 
ATOM     32  C   UNL     1      14.822  -5.651  -5.335  0.00  0.00    -0.066 C 
ATOM     33  C   UNL     1      15.567  -5.854  -4.014  0.00  0.00    +0.004 C 
ATOM     34  C   UNL     1      14.718  -6.711  -3.079  0.00  0.00    +0.103 C 
BRANCH  32  35
ATOM     35  N   UNL     1      15.650  -4.851  -6.248  0.00  0.00    +0.382 N 
ATOM     36  C   UNL     1      14.931  -4.652  -7.511  0.00  0.00    -0.078 C 
ATOM     37  C   UNL     1      15.755  -3.752  -8.435  0.00  0.00    -0.019 C 
ATOM     38  C   UNL     1      17.106  -4.417  -8.714  0.00  0.00    -0.004 C 
ATOM     39  C   UNL     1      17.815  -4.689  -7.384  0.00  0.00    -0.019 C 
ATOM     40  C   UNL     1      16.914  -5.554  -6.500  0.00  0.00    -0.078 C 
ATOM     41  H   UNL     1      15.843  -3.955  -5.827  0.00  0.00    -0.081 HD
ENDBRANCH  32  35
ENDBRANCH   7  29
TORSDOF 6
