REMARK  Name = CHEMBL365815
REMARK  9 active torsions:
REMARK  status: ('A' for Active; 'I' for Inactive)
REMARK    1  A    between atoms: C_1  and  C_2
REMARK    2  A    between atoms: C_2  and  S_3
REMARK    3  A    between atoms: S_3  and  C_6
REMARK    4  A    between atoms: C_9  and  O_30
REMARK    5  A    between atoms: C_10  and  N_12
REMARK    6  A    between atoms: C_16  and  C_18
REMARK    7  A    between atoms: C_22  and  C_24
REMARK    8  A    between atoms: N_28  and  C_29
REMARK    9  A    between atoms: O_30  and  C_31
REMARK                            x       y       z     vdW  Elec       q    Type
REMARK                         _______ _______ _______ _____ _____    ______ ____
ROOT
ATOM      1  N   UNL     1       3.269  -5.098   0.439  0.00  0.00    -0.266 N 
ATOM      2  C   UNL     1       4.186  -4.387  -0.309  0.00  0.00    +0.292 A 
ATOM      3  N   UNL     1       4.307  -3.080  -0.328  0.00  0.00    -0.203 NA
ATOM      4  C   UNL     1       5.300  -2.750  -1.169  0.00  0.00    +0.163 A 
ATOM      5  C   UNL     1       5.804  -3.899  -1.682  0.00  0.00    +0.157 A 
ATOM      6  O   UNL     1       5.102  -4.919  -1.133  0.00  0.00    -0.424 OA
ATOM      7  H   UNL     1       3.293  -6.067   0.442  0.00  0.00    +0.157 HD
ENDROOT
BRANCH   1  12
ATOM      8  C   UNL     1       1.411  -2.370   2.064  0.00  0.00    +0.090 A 
ATOM      9  C   UNL     1       0.401  -3.075   2.692  0.00  0.00    +0.030 A 
ATOM     10  C   UNL     1       0.337  -4.452   2.575  0.00  0.00    +0.049 A 
ATOM     11  C   UNL     1       1.288  -5.128   1.828  0.00  0.00    +0.141 A 
ATOM     12  C   UNL     1       2.306  -4.419   1.196  0.00  0.00    +0.079 A 
ATOM     13  C   UNL     1       2.360  -3.037   1.312  0.00  0.00    +0.054 A 
BRANCH   8  14
ATOM     14  S   UNL     1       1.486  -0.617   2.218  0.00  0.00    -0.003 S 
ATOM     15  O   UNL     1       2.856  -0.294   2.026  0.00  0.00    -0.169 OA
ATOM     16  O   UNL     1       0.841  -0.333   3.452  0.00  0.00    -0.169 OA
BRANCH  14  18
ATOM     17  C   UNL     1       0.489   1.544   0.869  0.00  0.00    +0.028 C 
ATOM     18  C   UNL     1       0.495   0.015   0.836  0.00  0.00    +0.168 C 
ENDBRANCH  14  18
ENDBRANCH   8  14
BRANCH  11  19
ATOM     19  O   UNL     1       1.227  -6.482   1.714  0.00  0.00    -0.493 OA
ATOM     20  C   UNL     1       0.156  -7.143   2.390  0.00  0.00    +0.277 C 
ENDBRANCH  11  19
ENDBRANCH   1  12
BRANCH   5  21
ATOM     21  C   UNL     1       6.912  -4.017  -2.652  0.00  0.00    +0.020 A 
ATOM     22  C   UNL     1       7.553  -2.869  -3.126  0.00  0.00    +0.011 A 
ATOM     23  C   UNL     1       8.588  -2.978  -4.033  0.00  0.00    +0.001 A 
ATOM     24  C   UNL     1       8.997  -4.220  -4.478  0.00  0.00    +0.010 A 
ATOM     25  C   UNL     1       8.365  -5.375  -4.013  0.00  0.00    +0.001 A 
ATOM     26  C   UNL     1       7.324  -5.273  -3.093  0.00  0.00    +0.021 A 
BRANCH  25  27
ATOM     27  C   UNL     1       8.804  -6.703  -4.492  0.00  0.00    +0.068 A 
ATOM     28  C   UNL     1       8.571  -7.903  -3.893  0.00  0.00    +0.138 A 
ATOM     29  N   UNL     1       9.135  -8.854  -4.646  0.00  0.00    -0.243 NA
ATOM     30  C   UNL     1       9.708  -8.308  -5.684  0.00  0.00    +0.199 A 
ATOM     31  N   UNL     1       9.523  -6.971  -5.635  0.00  0.00    -0.333 N 
ATOM     32  C   UNL     1      10.000  -5.989  -6.613  0.00  0.00    +0.150 C 
ENDBRANCH  25  27
ENDBRANCH   5  21
TORSDOF 6
