REMARK  Name = CHEMBL231612
REMARK  8 active torsions:
REMARK  status: ('A' for Active; 'I' for Inactive)
REMARK    1  A    between atoms: C_1  and  C_2
REMARK    2  A    between atoms: C_6  and  N_8
REMARK    3  A    between atoms: N_11  and  C_12
REMARK    4  A    between atoms: C_15  and  C_18
REMARK    5  A    between atoms: C_23  and  N_37
REMARK    6  A    between atoms: C_26  and  C_27
REMARK    7  A    between atoms: C_31  and  C_33
REMARK    8  A    between atoms: N_35  and  C_36
REMARK                            x       y       z     vdW  Elec       q    Type
REMARK                         _______ _______ _______ _____ _____    ______ ____
ROOT
ATOM      1  C   UNL     1       0.821 -10.493   2.824  0.00  0.00    +0.000 A 
ATOM      2  C   UNL     1       0.340 -11.196   1.771  0.00  0.00    +0.055 A 
ATOM      3  S   UNL     1       0.467 -12.890   2.310  0.00  0.00    -0.095 S 
ATOM      4  C   UNL     1       1.154 -12.620   3.920  0.00  0.00    +0.032 A 
ATOM      5  C   UNL     1       1.278 -11.219   4.005  0.00  0.00    +0.037 A 
ATOM      6  C   UNL     1       1.820 -10.717   5.217  0.00  0.00    +0.125 A 
ATOM      7  N   UNL     1       2.184 -11.528   6.189  0.00  0.00    -0.239 NA
ATOM      8  C   UNL     1       2.076 -12.844   6.117  0.00  0.00    +0.122 A 
ATOM      9  C   UNL     1       1.548 -13.439   4.976  0.00  0.00    +0.015 A 
ENDROOT
BRANCH   1  13
ATOM     10  C   UNL     1       1.011  -6.247   2.684  0.00  0.00    +0.035 A 
ATOM     11  C   UNL     1       2.163  -6.985   2.924  0.00  0.00    +0.024 A 
ATOM     12  C   UNL     1       2.104  -8.361   2.970  0.00  0.00    +0.010 A 
ATOM     13  C   UNL     1       0.887  -9.013   2.775  0.00  0.00    -0.017 A 
ATOM     14  C   UNL     1      -0.268  -8.270   2.535  0.00  0.00    +0.010 A 
ATOM     15  C   UNL     1      -0.205  -6.893   2.495  0.00  0.00    +0.024 A 
BRANCH  10  19
ATOM     16  N   UNL     1       2.276  -2.896   2.200  0.00  0.00    -0.269 N 
ATOM     17  C   UNL     1       2.174  -4.239   2.155  0.00  0.00    +0.308 C 
ATOM     18  O   UNL     1       3.076  -4.901   1.678  0.00  0.00    -0.252 OA
ATOM     19  N   UNL     1       1.073  -4.849   2.637  0.00  0.00    -0.269 N 
ATOM     20  H   UNL     1       1.589  -2.373   2.643  0.00  0.00    +0.156 HD
ATOM     21  H   UNL     1       0.324  -4.319   2.952  0.00  0.00    +0.156 HD
BRANCH  16  27
ATOM     22  C   UNL     1       5.519   0.799   2.190  0.00  0.00    +0.044 C 
ATOM     23  C   UNL     1       4.964  -0.464   1.584  0.00  0.00    -0.049 A 
ATOM     24  C   UNL     1       5.537  -0.992   0.442  0.00  0.00    +0.003 A 
ATOM     25  C   UNL     1       5.030  -2.150  -0.118  0.00  0.00    +0.002 A 
ATOM     26  C   UNL     1       3.949  -2.784   0.463  0.00  0.00    +0.023 A 
ATOM     27  C   UNL     1       3.371  -2.257   1.610  0.00  0.00    +0.035 A 
ATOM     28  C   UNL     1       3.886  -1.096   2.172  0.00  0.00    +0.026 A 
ENDBRANCH  16  27
ENDBRANCH  10  19
ENDBRANCH   1  13
BRANCH   9  29
ATOM     29  C   UNL     1       1.421 -14.913   4.880  0.00  0.00    -0.015 A 
ATOM     30  C   UNL     1       0.217 -15.486   4.470  0.00  0.00    +0.008 A 
ATOM     31  C   UNL     1       0.097 -16.859   4.379  0.00  0.00    +0.001 A 
ATOM     32  C   UNL     1       1.167 -17.674   4.693  0.00  0.00    +0.013 A 
ATOM     33  C   UNL     1       2.377 -17.113   5.105  0.00  0.00    +0.037 A 
ATOM     34  C   UNL     1       2.505 -15.727   5.193  0.00  0.00    +0.021 A 
BRANCH  33  35
ATOM     35  C   UNL     1       3.522 -17.986   5.441  0.00  0.00    +0.244 C 
ATOM     36  O   UNL     1       4.575 -17.496   5.800  0.00  0.00    -0.270 OA
ATOM     37  N   UNL     1       3.398 -19.325   5.351  0.00  0.00    -0.314 N 
ATOM     38  C   UNL     1       4.533 -20.190   5.684  0.00  0.00    +0.128 C 
ATOM     39  H   UNL     1       2.558 -19.716   5.065  0.00  0.00    +0.149 HD
ENDBRANCH  33  35
ENDBRANCH   9  29
BRANCH   6  40
ATOM     40  N   UNL     1       1.969  -9.348   5.381  0.00  0.00    -0.343 N 
ATOM     41  H   UNL     1       1.384  -8.736   4.906  0.00  0.00    +0.144 HD
ATOM     42  H   UNL     1       2.658  -9.002   5.969  0.00  0.00    +0.144 HD
ENDBRANCH   6  40
TORSDOF 6
