REMARK  Name = CHEMBL514838
REMARK  7 active torsions:
REMARK  status: ('A' for Active; 'I' for Inactive)
REMARK    1  A    between atoms: C_1  and  C_2
REMARK    2  A    between atoms: C_6  and  N_12
REMARK    3  A    between atoms: N_10  and  C_11
REMARK    4  A    between atoms: N_12  and  C_13
REMARK    5  A    between atoms: N_20  and  C_21
REMARK    6  A    between atoms: C_25  and  S_27
REMARK    7  A    between atoms: S_27  and  N_30
REMARK                            x       y       z     vdW  Elec       q    Type
REMARK                         _______ _______ _______ _____ _____    ______ ____
ROOT
ATOM      1  N   UNL     1       0.673  -4.129  -3.894  0.00  0.00    -0.288 N 
ATOM      2  C   UNL     1      -0.490  -4.262  -3.013  0.00  0.00    +0.137 C 
ATOM      3  C   UNL     1       0.506  -3.711  -5.205  0.00  0.00    +0.130 A 
ATOM      4  C   UNL     1       0.648  -2.363  -5.542  0.00  0.00    +0.061 A 
ATOM      5  C   UNL     1       0.473  -1.992  -6.861  0.00  0.00    +0.089 A 
ATOM      6  N   UNL     1       0.177  -2.918  -7.761  0.00  0.00    -0.334 N 
ATOM      7  C   UNL     1       0.048  -4.190  -7.413  0.00  0.00    +0.199 A 
ATOM      8  N   UNL     1       0.213  -4.587  -6.160  0.00  0.00    -0.201 NA
ATOM      9  N   UNL     1      -0.262  -5.128  -8.384  0.00  0.00    -0.285 N 
ATOM     10  H   UNL     1      -0.306  -4.864  -9.316  0.00  0.00    +0.155 HD
ATOM     11  H   UNL     1       0.053  -2.661  -8.688  0.00  0.00    +0.168 HD
ENDROOT
BRANCH   1  17
ATOM     12  C   UNL     1       6.476  -5.639  -0.879  0.00  0.00    +0.066 C 
ATOM     13  C   UNL     1       5.817  -5.268  -2.182  0.00  0.00    +0.044 A 
ATOM     14  C   UNL     1       4.469  -5.024  -2.371  0.00  0.00    +0.023 A 
ATOM     15  C   UNL     1       3.333  -5.025  -1.533  0.00  0.00    +0.013 A 
ATOM     16  C   UNL     1       2.116  -4.731  -2.054  0.00  0.00    +0.024 A 
ATOM     17  C   UNL     1       1.952  -4.424  -3.412  0.00  0.00    +0.037 A 
ATOM     18  C   UNL     1       3.007  -4.406  -4.274  0.00  0.00    +0.053 A 
ATOM     19  C   UNL     1       4.301  -4.702  -3.796  0.00  0.00    +0.095 A 
ATOM     20  N   UNL     1       5.500  -4.770  -4.347  0.00  0.00    -0.171 NA
ATOM     21  N   UNL     1       6.433  -5.111  -3.361  0.00  0.00    -0.270 N 
ATOM     22  C   UNL     1       7.872  -5.276  -3.586  0.00  0.00    +0.172 C 
ENDBRANCH   1  17
BRANCH   9  23
ATOM     23  C   UNL     1      -0.512  -6.454  -8.020  0.00  0.00    +0.035 A 
ATOM     24  C   UNL     1      -1.117  -6.740  -6.802  0.00  0.00    +0.023 A 
ATOM     25  C   UNL     1      -1.363  -8.051  -6.446  0.00  0.00    +0.004 A 
ATOM     26  C   UNL     1      -1.006  -9.079  -7.299  0.00  0.00    +0.028 A 
ATOM     27  C   UNL     1      -0.404  -8.799  -8.512  0.00  0.00    +0.107 A 
ATOM     28  C   UNL     1      -0.161  -7.489  -8.877  0.00  0.00    +0.051 A 
BRANCH  27  29
ATOM     29  S   UNL     1       0.048 -10.113  -9.595  0.00  0.00    +0.056 S 
ATOM     30  O   UNL     1       1.089  -9.616 -10.424  0.00  0.00    -0.153 OA
ATOM     31  O   UNL     1       0.205 -11.270  -8.786  0.00  0.00    -0.153 OA
BRANCH  29  32
ATOM     32  N   UNL     1      -1.249 -10.399 -10.584  0.00  0.00    -0.204 NA
ATOM     33  H   UNL     1      -2.058  -9.873 -10.489  0.00  0.00    +0.144 HD
ATOM     34  H   UNL     1      -1.200 -11.094 -11.259  0.00  0.00    +0.144 HD
ENDBRANCH  29  32
ENDBRANCH  27  29
ENDBRANCH   9  23
TORSDOF 4
