REMARK  Name = CHEMBL333297
REMARK  5 active torsions:
REMARK  status: ('A' for Active; 'I' for Inactive)
REMARK    1  A    between atoms: C_8  and  C_12
REMARK    2  A    between atoms: C_16  and  O_22
REMARK    3  A    between atoms: O_22  and  C_23
REMARK    4  A    between atoms: C_23  and  C_24
REMARK    5  A    between atoms: C_24  and  N_25
REMARK                            x       y       z     vdW  Elec       q    Type
REMARK                         _______ _______ _______ _____ _____    ______ ____
ROOT
ATOM      1  C   UNL     1       2.277  -4.316  -0.422  0.00  0.00    +0.053 A 
ATOM      2  C   UNL     1       2.852  -5.018   0.589  0.00  0.00    +0.036 A 
ATOM      3  C   UNL     1       2.731  -6.434   0.248  0.00  0.00    +0.004 A 
ATOM      4  C   UNL     1       3.123  -7.618   0.880  0.00  0.00    +0.055 A 
ATOM      5  C   UNL     1       2.856  -8.832   0.282  0.00  0.00    +0.121 A 
ATOM      6  C   UNL     1       2.199  -8.881  -0.946  0.00  0.00    +0.047 A 
ATOM      7  C   UNL     1       1.808  -7.721  -1.579  0.00  0.00    +0.030 A 
ATOM      8  C   UNL     1       2.067  -6.487  -0.993  0.00  0.00    +0.047 A 
ATOM      9  N   UNL     1       1.798  -5.188  -1.373  0.00  0.00    -0.354 N 
ATOM     10  H   UNL     1       1.343  -4.928  -2.189  0.00  0.00    +0.166 HD
ENDROOT
BRANCH   1  18
ATOM     11  C   UNL     1      -0.414   1.203  -0.531  0.00  0.00    +0.001 A 
ATOM     12  C   UNL     1       0.751   1.950  -0.635  0.00  0.00    +0.002 A 
ATOM     13  C   UNL     1       1.981   1.331  -0.677  0.00  0.00    +0.026 A 
ATOM     14  C   UNL     1       2.062  -0.058  -0.615  0.00  0.00    +0.049 A 
ATOM     15  C   UNL     1       0.879  -0.813  -0.510  0.00  0.00    -0.001 A 
ATOM     16  C   UNL     1      -0.361  -0.160  -0.469  0.00  0.00    +0.010 A 
ATOM     17  C   UNL     1       0.945  -2.228  -0.445  0.00  0.00    +0.025 A 
ATOM     18  C   UNL     1       2.177  -2.845  -0.487  0.00  0.00    +0.063 A 
ATOM     19  C   UNL     1       3.388  -2.023  -0.598  0.00  0.00    +0.258 A 
ATOM     20  N   UNL     1       3.292  -0.682  -0.656  0.00  0.00    -0.322 N 
ATOM     21  O   UNL     1       4.483  -2.556  -0.636  0.00  0.00    -0.267 OA
ATOM     22  H   UNL     1       4.098  -0.147  -0.728  0.00  0.00    +0.169 HD
ENDBRANCH   1  18
BRANCH   5  23
ATOM     23  O   UNL     1       3.235  -9.987   0.892  0.00  0.00    -0.494 OA
BRANCH  23  24
ATOM     24  C   UNL     1       2.928 -11.209   0.218  0.00  0.00    +0.210 C 
BRANCH  24  25
ATOM     25  C   UNL     1       3.428 -12.390   1.052  0.00  0.00    -0.037 C 
BRANCH  25  26
ATOM     26  N   UNL     1       2.706 -12.428   2.330  0.00  0.00    +0.382 N 
ATOM     27  C   UNL     1       3.292 -13.463   3.191  0.00  0.00    -0.079 C 
ATOM     28  C   UNL     1       2.597 -13.452   4.554  0.00  0.00    -0.019 C 
ATOM     29  C   UNL     1       1.104 -13.731   4.362  0.00  0.00    -0.004 C 
ATOM     30  C   UNL     1       0.519 -12.689   3.404  0.00  0.00    -0.019 C 
ATOM     31  C   UNL     1       1.291 -12.729   2.083  0.00  0.00    -0.079 C 
ATOM     32  H   UNL     1       2.784 -11.531   2.786  0.00  0.00    -0.082 HD
ENDBRANCH  25  26
ENDBRANCH  24  25
ENDBRANCH  23  24
ENDBRANCH   5  23
TORSDOF 5
