REMARK  Name = CHEMBL425109
REMARK  6 active torsions:
REMARK  status: ('A' for Active; 'I' for Inactive)
REMARK    1  A    between atoms: C_1  and  C_2
REMARK    2  A    between atoms: C_2  and  C_3
REMARK    3  A    between atoms: C_3  and  N_4
REMARK    4  A    between atoms: C_8  and  N_29
REMARK    5  A    between atoms: N_23  and  C_28
REMARK    6  A    between atoms: C_30  and  C_32
REMARK                            x       y       z     vdW  Elec       q    Type
REMARK                         _______ _______ _______ _____ _____    ______ ____
ROOT
ATOM      1  N   UNL     1       0.758  -1.968  -1.321  0.00  0.00    -0.340 N 
ATOM      2  C   UNL     1       1.766  -2.744  -0.804  0.00  0.00    +0.050 A 
ATOM      3  C   UNL     1       2.876  -2.402  -0.032  0.00  0.00    +0.028 A 
ATOM      4  C   UNL     1       3.727  -3.428   0.342  0.00  0.00    +0.025 A 
ATOM      5  C   UNL     1       3.501  -4.748  -0.028  0.00  0.00    +0.034 A 
ATOM      6  C   UNL     1       2.401  -5.111  -0.799  0.00  0.00    +0.034 A 
ATOM      7  C   UNL     1       1.536  -4.086  -1.180  0.00  0.00    +0.010 A 
ATOM      8  C   UNL     1       0.304  -4.094  -1.974  0.00  0.00    +0.013 A 
ATOM      9  C   UNL     1      -0.136  -2.755  -2.026  0.00  0.00    +0.054 A 
ATOM     10  C   UNL     1      -1.311  -2.435  -2.703  0.00  0.00    -0.014 A 
ATOM     11  C   UNL     1      -2.017  -3.441  -3.355  0.00  0.00    +0.003 A 
ATOM     12  C   UNL     1      -1.596  -4.780  -3.290  0.00  0.00    +0.050 A 
ATOM     13  C   UNL     1      -0.424  -5.092  -2.601  0.00  0.00    -0.008 A 
ATOM     14  C   UNL     1      -0.242  -6.585  -2.721  0.00  0.00    +0.141 C 
ATOM     15  N   UNL     1      -1.371  -7.071  -3.523  0.00  0.00    -0.307 N 
ATOM     16  C   UNL     1      -2.154  -6.026  -3.840  0.00  0.00    +0.245 C 
ATOM     17  O   UNL     1      -3.174  -6.097  -4.498  0.00  0.00    -0.270 OA
ATOM     18  C   UNL     1      -3.195  -3.037  -4.154  0.00  0.00    +0.024 A 
ATOM     19  C   UNL     1      -4.197  -3.753  -4.707  0.00  0.00    +0.116 A 
ATOM     20  N   UNL     1      -5.029  -2.878  -5.316  0.00  0.00    -0.274 N 
ATOM     21  N   UNL     1      -4.517  -1.583  -5.136  0.00  0.00    -0.176 NA
ATOM     22  C   UNL     1      -3.422  -1.665  -4.454  0.00  0.00    +0.071 A 
ATOM     23  C   UNL     1      -2.457  -0.598  -4.006  0.00  0.00    +0.062 C 
ATOM     24  C   UNL     1      -1.810  -1.016  -2.689  0.00  0.00    +0.044 C 
ATOM     25  C   UNL     1      -6.255  -3.224  -6.040  0.00  0.00    +0.172 C 
ATOM     26  H   UNL     1      -1.532  -7.994  -3.772  0.00  0.00    +0.149 HD
ENDROOT
BRANCH   5  27
ATOM     27  N   UNL     1       4.402  -5.737   0.384  0.00  0.00    -0.279 N 
ATOM     28  C   UNL     1       3.953  -6.966   0.709  0.00  0.00    +0.284 C 
ATOM     29  O   UNL     1       2.777  -7.242   0.562  0.00  0.00    -0.266 OA
ATOM     30  H   UNL     1       5.350  -5.538   0.436  0.00  0.00    +0.155 HD
BRANCH  28  31
ATOM     31  C   UNL     1       4.881  -7.970   1.238  0.00  0.00    +0.189 A 
ATOM     32  C   UNL     1       4.561  -9.247   1.599  0.00  0.00    +0.054 A 
ATOM     33  C   UNL     1       5.747  -9.850   2.046  0.00  0.00    +0.042 A 
ATOM     34  C   UNL     1       6.727  -8.925   1.940  0.00  0.00    +0.196 A 
ATOM     35  O   UNL     1       6.202  -7.796   1.447  0.00  0.00    -0.458 OA
ENDBRANCH  28  31
ENDBRANCH   5  27
BRANCH   1  36
ATOM     36  C   UNL     1       0.642  -0.518  -1.146  0.00  0.00    +0.122 C 
BRANCH  36  38
ATOM     37  C   UNL     1       1.116   1.706  -2.181  0.00  0.00    +0.005 C 
ATOM     38  C   UNL     1       1.237   0.192  -2.364  0.00  0.00    +0.018 C 
ENDBRANCH  36  38
ENDBRANCH   1  36
TORSDOF 4
