REMARK  Name = CHEMBL198862
REMARK  12 active torsions:
REMARK  status: ('A' for Active; 'I' for Inactive)
REMARK    1  A    between atoms: C_1  and  O_2
REMARK    2  A    between atoms: O_2  and  C_3
REMARK    3  A    between atoms: C_8  and  O_9
REMARK    4  A    between atoms: O_9  and  C_10
REMARK    5  A    between atoms: C_10  and  C_11
REMARK    6  A    between atoms: C_11  and  C_12
REMARK    7  A    between atoms: C_12  and  N_13
REMARK    8  A    between atoms: C_21  and  N_22
REMARK    9  A    between atoms: C_26  and  O_30
REMARK   10  A    between atoms: O_30  and  C_31
REMARK   11  A    between atoms: C_31  and  C_32
REMARK   12  A    between atoms: C_31  and  C_34
REMARK                            x       y       z     vdW  Elec       q    Type
REMARK                         _______ _______ _______ _____ _____    ______ ____
ROOT
ATOM      1  C   UNL     1       0.782  -0.846   1.104  0.00  0.00    +0.162 A 
ATOM      2  C   UNL     1       1.281   0.025   2.033  0.00  0.00    +0.063 A 
ATOM      3  C   UNL     1       2.044  -0.465   3.097  0.00  0.00    +0.048 A 
ATOM      4  C   UNL     1       2.293  -1.859   3.205  0.00  0.00    +0.080 A 
ATOM      5  C   UNL     1       1.768  -2.728   2.238  0.00  0.00    +0.078 A 
ATOM      6  C   UNL     1       1.022  -2.225   1.211  0.00  0.00    +0.164 A 
ATOM      7  N   UNL     1       3.026  -2.302   4.233  0.00  0.00    -0.235 NA
ATOM      8  C   UNL     1       3.504  -1.464   5.124  0.00  0.00    +0.224 A 
ATOM      9  N   UNL     1       3.301  -0.160   5.069  0.00  0.00    -0.216 NA
ATOM     10  C   UNL     1       2.587   0.391   4.090  0.00  0.00    +0.164 A 
ENDROOT
BRANCH  10  11
ATOM     11  N   UNL     1       2.384   1.736   4.043  0.00  0.00    -0.228 NA
ATOM     12  C   UNL     1       1.330   2.256   4.605  0.00  0.00    +0.098 C 
ATOM     13  C   UNL     1       0.380   1.431   5.459  0.00  0.00    +0.142 C 
ATOM     14  C   UNL     1       0.170   2.194   6.749  0.00  0.00    +0.203 C 
ATOM     15  C   UNL     1       0.019   3.661   6.706  0.00  0.00    +0.169 C 
ATOM     16  C   UNL     1       0.413   4.379   5.625  0.00  0.00    +0.102 C 
ATOM     17  C   UNL     1       0.985   3.697   4.458  0.00  0.00    +0.204 C 
ATOM     18  O   UNL     1       1.165   4.287   3.409  0.00  0.00    -0.286 OA
ATOM     19  O   UNL     1       0.126   1.607   7.804  0.00  0.00    -0.288 OA
BRANCH  15  20
ATOM     20  O   UNL     1      -0.523   4.303   7.766  0.00  0.00    -0.468 OA
BRANCH  20  21
ATOM     21  C   UNL     1      -0.533   5.732   7.724  0.00  0.00    +0.278 C 
BRANCH  21  22
ATOM     22  C   UNL     1      -0.608   6.275   9.128  0.00  0.00    +0.005 A 
ATOM     23  C   UNL     1      -1.334   5.601  10.092  0.00  0.00    +0.008 A 
ATOM     24  C   UNL     1      -1.403   6.099  11.379  0.00  0.00    +0.000 A 
ATOM     25  C   UNL     1      -0.746   7.272  11.703  0.00  0.00    +0.000 A 
ATOM     26  C   UNL     1      -0.019   7.945  10.739  0.00  0.00    +0.000 A 
ATOM     27  C   UNL     1       0.053   7.445   9.452  0.00  0.00    +0.008 A 
ENDBRANCH  21  22
BRANCH  21  28
ATOM     28  C   UNL     1      -1.702   6.192   6.957  0.00  0.00    -0.057 C 
ATOM     29  C   UNL     1      -2.634   6.559   6.344  0.00  0.00    +0.008 C 
ENDBRANCH  21  28
ENDBRANCH  20  21
ENDBRANCH  15  20
ENDBRANCH  10  11
BRANCH   1  31
ATOM     30  C   UNL     1      -0.169   1.041   0.014  0.00  0.00    +0.277 C 
ATOM     31  O   UNL     1       0.041  -0.371   0.069  0.00  0.00    -0.491 OA
ENDBRANCH   1  31
BRANCH   6  32
ATOM     32  O   UNL     1       0.509  -3.069   0.279  0.00  0.00    -0.488 OA
BRANCH  32  33
ATOM     33  C   UNL     1       0.787  -4.461   0.441  0.00  0.00    +0.227 C 
BRANCH  33  34
ATOM     34  C   UNL     1       0.132  -5.248  -0.696  0.00  0.00    +0.022 C 
BRANCH  34  35
ATOM     35  C   UNL     1       0.429  -6.739  -0.522  0.00  0.00    -0.076 C 
BRANCH  35  36
ATOM     36  N   UNL     1      -0.199  -7.494  -1.614  0.00  0.00    +0.380 N 
ATOM     37  C   UNL     1       0.477  -7.192  -2.901  0.00  0.00    -0.079 C 
ATOM     38  C   UNL     1       0.120  -8.414  -3.784  0.00  0.00    -0.020 C 
ATOM     39  C   UNL     1       0.167  -9.591  -2.782  0.00  0.00    -0.020 C 
ATOM     40  C   UNL     1      -0.024  -8.946  -1.397  0.00  0.00    -0.079 C 
ATOM     41  H   UNL     1      -1.181  -7.267  -1.674  0.00  0.00    -0.082 HD
ENDBRANCH  35  36
ENDBRANCH  34  35
ENDBRANCH  33  34
ENDBRANCH  32  33
ENDBRANCH   6  32
TORSDOF 11
