REMARK  Name = CHEMBL196805
REMARK  11 active torsions:
REMARK  status: ('A' for Active; 'I' for Inactive)
REMARK    1  A    between atoms: C_1  and  O_2
REMARK    2  A    between atoms: O_2  and  C_3
REMARK    3  A    between atoms: C_8  and  O_9
REMARK    4  A    between atoms: O_9  and  C_10
REMARK    5  A    between atoms: C_10  and  C_11
REMARK    6  A    between atoms: C_11  and  C_12
REMARK    7  A    between atoms: C_12  and  N_13
REMARK    8  A    between atoms: C_21  and  N_22
REMARK    9  A    between atoms: C_26  and  O_30
REMARK   10  A    between atoms: O_30  and  C_31
REMARK   11  A    between atoms: C_31  and  C_32
REMARK                            x       y       z     vdW  Elec       q    Type
REMARK                         _______ _______ _______ _____ _____    ______ ____
ROOT
ATOM      1  C   UNL     1       0.558  -0.569  -1.056  0.00  0.00    +0.162 A 
ATOM      2  C   UNL     1       1.129   0.184  -2.044  0.00  0.00    +0.063 A 
ATOM      3  C   UNL     1       1.758  -0.451  -3.118  0.00  0.00    +0.048 A 
ATOM      4  C   UNL     1       1.798  -1.869  -3.176  0.00  0.00    +0.080 A 
ATOM      5  C   UNL     1       1.203  -2.617  -2.149  0.00  0.00    +0.078 A 
ATOM      6  C   UNL     1       0.600  -1.971  -1.107  0.00  0.00    +0.164 A 
ATOM      7  N   UNL     1       2.406  -2.454  -4.215  0.00  0.00    -0.235 NA
ATOM      8  C   UNL     1       2.955  -1.728  -5.162  0.00  0.00    +0.224 A 
ATOM      9  N   UNL     1       2.945  -0.407  -5.156  0.00  0.00    -0.216 NA
ATOM     10  C   UNL     1       2.368   0.278  -4.171  0.00  0.00    +0.164 A 
ENDROOT
BRANCH  10  11
ATOM     11  N   UNL     1       2.364   1.639  -4.175  0.00  0.00    -0.228 NA
ATOM     12  C   UNL     1       3.287   2.295  -3.530  0.00  0.00    +0.098 C 
ATOM     13  C   UNL     1       3.253   3.809  -3.390  0.00  0.00    +0.142 C 
ATOM     14  C   UNL     1       3.464   4.121  -1.923  0.00  0.00    +0.203 C 
ATOM     15  C   UNL     1       4.451   3.341  -1.152  0.00  0.00    +0.167 C 
ATOM     16  C   UNL     1       4.908   2.145  -1.597  0.00  0.00    +0.102 C 
ATOM     17  C   UNL     1       4.437   1.608  -2.879  0.00  0.00    +0.204 C 
ATOM     18  O   UNL     1       4.969   0.641  -3.390  0.00  0.00    -0.286 OA
ATOM     19  O   UNL     1       2.829   5.000  -1.390  0.00  0.00    -0.288 OA
BRANCH  15  20
ATOM     20  O   UNL     1       4.910   3.831   0.023  0.00  0.00    -0.481 OA
BRANCH  20  21
ATOM     21  C   UNL     1       5.865   3.036   0.729  0.00  0.00    +0.303 C 
BRANCH  21  22
ATOM     22  C   UNL     1       6.257   3.736   2.004  0.00  0.00    +0.142 A 
ATOM     23  C   UNL     1       5.655   3.593   3.198  0.00  0.00    +0.048 A 
ATOM     24  C   UNL     1       6.343   4.428   4.108  0.00  0.00    +0.041 A 
ATOM     25  C   UNL     1       7.325   5.033   3.415  0.00  0.00    +0.195 A 
ATOM     26  O   UNL     1       7.272   4.606   2.143  0.00  0.00    -0.464 OA
ENDBRANCH  21  22
ENDBRANCH  20  21
ENDBRANCH  15  20
ENDBRANCH  10  11
BRANCH   1  28
ATOM     27  C   UNL     1      -0.065   1.476  -0.015  0.00  0.00    +0.277 C 
ATOM     28  O   UNL     1      -0.054   0.047  -0.010  0.00  0.00    -0.491 OA
ENDBRANCH   1  28
BRANCH   6  29
ATOM     29  O   UNL     1       0.030  -2.696  -0.110  0.00  0.00    -0.488 OA
BRANCH  29  30
ATOM     30  C   UNL     1       0.105  -4.119  -0.217  0.00  0.00    +0.227 C 
BRANCH  30  31
ATOM     31  C   UNL     1      -0.587  -4.758   0.989  0.00  0.00    +0.022 C 
BRANCH  31  32
ATOM     32  C   UNL     1      -0.506  -6.282   0.874  0.00  0.00    -0.076 C 
BRANCH  32  33
ATOM     33  N   UNL     1      -1.170  -6.896   2.031  0.00  0.00    +0.380 N 
ATOM     34  C   UNL     1      -2.635  -6.659   1.966  0.00  0.00    -0.079 C 
ATOM     35  C   UNL     1      -3.216  -7.783   2.861  0.00  0.00    -0.020 C 
ATOM     36  C   UNL     1      -2.295  -8.985   2.549  0.00  0.00    -0.020 C 
ATOM     37  C   UNL     1      -0.997  -8.365   1.998  0.00  0.00    -0.079 C 
ATOM     38  H   UNL     1      -0.793  -6.521   2.889  0.00  0.00    -0.082 HD
ENDBRANCH  32  33
ENDBRANCH  31  32
ENDBRANCH  30  31
ENDBRANCH  29  30
ENDBRANCH   6  29
TORSDOF 10
