REMARK  Name = CHEMBL387174
REMARK  7 active torsions:
REMARK  status: ('A' for Active; 'I' for Inactive)
REMARK    1  A    between atoms: C_1  and  C_2
REMARK    2  A    between atoms: C_2  and  C_3
REMARK    3  A    between atoms: C_3  and  N_4
REMARK    4  A    between atoms: C_8  and  N_27
REMARK    5  A    between atoms: C_23  and  C_25
REMARK    6  A    between atoms: N_30  and  C_31
REMARK    7  A    between atoms: C_34  and  C_37
REMARK                            x       y       z     vdW  Elec       q    Type
REMARK                         _______ _______ _______ _____ _____    ______ ____
ROOT
ATOM      1  N   UNL     1       0.745  -1.998   1.177  0.00  0.00    -0.340 N 
ATOM      2  C   UNL     1      -0.157  -2.792   1.840  0.00  0.00    +0.050 A 
ATOM      3  C   UNL     1      -1.253  -2.461   2.635  0.00  0.00    +0.028 A 
ATOM      4  C   UNL     1      -1.984  -3.506   3.173  0.00  0.00    +0.025 A 
ATOM      5  C   UNL     1      -1.653  -4.835   2.942  0.00  0.00    +0.035 A 
ATOM      6  C   UNL     1      -0.564  -5.188   2.153  0.00  0.00    +0.034 A 
ATOM      7  C   UNL     1       0.179  -4.144   1.605  0.00  0.00    +0.010 A 
ATOM      8  C   UNL     1       1.363  -4.135   0.741  0.00  0.00    +0.013 A 
ATOM      9  C   UNL     1       1.663  -2.781   0.500  0.00  0.00    +0.054 A 
ATOM     10  C   UNL     1       2.747  -2.439  -0.315  0.00  0.00    -0.015 A 
ATOM     11  C   UNL     1       3.517  -3.410  -0.877  0.00  0.00    -0.026 A 
ATOM     12  C   UNL     1       3.229  -4.766  -0.640  0.00  0.00    +0.046 A 
ATOM     13  C   UNL     1       2.156  -5.119   0.175  0.00  0.00    -0.008 A 
ATOM     14  C   UNL     1       2.130  -6.627   0.221  0.00  0.00    +0.141 C 
ATOM     15  N   UNL     1       3.257  -7.080  -0.602  0.00  0.00    -0.307 N 
ATOM     16  C   UNL     1       3.883  -6.002  -1.106  0.00  0.00    +0.245 C 
ATOM     17  O   UNL     1       4.857  -6.040  -1.832  0.00  0.00    -0.270 OA
ATOM     18  C   UNL     1       4.686  -3.078  -1.763  0.00  0.00    +0.063 C 
ATOM     19  C   UNL     1       5.187  -1.689  -1.516  0.00  0.00    -0.017 C 
ATOM     20  C   UNL     1       4.443  -0.749  -0.970  0.00  0.00    -0.029 C 
ATOM     21  C   UNL     1       3.027  -0.978  -0.545  0.00  0.00    +0.073 C 
ATOM     22  H   UNL     1       3.502  -8.004  -0.765  0.00  0.00    +0.149 HD
ENDROOT
BRANCH   5  23
ATOM     23  N   UNL     1      -2.436  -5.844   3.518  0.00  0.00    -0.269 N 
ATOM     24  C   UNL     1      -1.861  -6.992   3.928  0.00  0.00    +0.308 C 
ATOM     25  O   UNL     1      -0.651  -7.112   3.894  0.00  0.00    -0.252 OA
ATOM     26  N   UNL     1      -2.626  -8.007   4.375  0.00  0.00    -0.269 N 
ATOM     27  H   UNL     1      -3.392  -5.717   3.622  0.00  0.00    +0.156 HD
ATOM     28  H   UNL     1      -3.585  -7.890   4.462  0.00  0.00    +0.156 HD
BRANCH  26  29
ATOM     29  C   UNL     1      -2.037  -9.230   4.715  0.00  0.00    +0.035 A 
ATOM     30  C   UNL     1      -2.711 -10.419   4.468  0.00  0.00    +0.023 A 
ATOM     31  C   UNL     1      -2.127 -11.625   4.804  0.00  0.00    +0.005 A 
ATOM     32  C   UNL     1      -0.873 -11.649   5.387  0.00  0.00    -0.050 A 
ATOM     33  C   UNL     1      -0.200 -10.466   5.635  0.00  0.00    +0.005 A 
ATOM     34  C   UNL     1      -0.775  -9.258   5.295  0.00  0.00    +0.023 A 
ATOM     35  C   UNL     1      -0.239 -12.966   5.754  0.00  0.00    +0.044 C 
ENDBRANCH  26  29
ENDBRANCH   5  23
BRANCH  20  36
ATOM     36  C   UNL     1       5.030   0.583  -0.769  0.00  0.00    +0.104 C 
ATOM     37  N   UNL     1       6.254   0.812  -1.127  0.00  0.00    -0.307 NA
ATOM     38  H   UNL     1       6.642   1.691  -0.994  0.00  0.00    +0.186 HD
ENDBRANCH  20  36
BRANCH   1  39
ATOM     39  C   UNL     1       0.734  -0.533   1.180  0.00  0.00    +0.122 C 
BRANCH  39  41
ATOM     40  C   UNL     1       1.497   1.510   2.399  0.00  0.00    +0.005 C 
ATOM     41  C   UNL     1       1.509  -0.020   2.395  0.00  0.00    +0.018 C 
ENDBRANCH  39  41
ENDBRANCH   1  39
TORSDOF 5
