REMARK  Name = CHEMBL406388
REMARK  8 active torsions:
REMARK  status: ('A' for Active; 'I' for Inactive)
REMARK    1  A    between atoms: C_1  and  O_2
REMARK    2  A    between atoms: O_2  and  C_3
REMARK    3  A    between atoms: C_6  and  O_15
REMARK    4  A    between atoms: C_12  and  O_13
REMARK    5  A    between atoms: O_13  and  C_14
REMARK    6  A    between atoms: O_15  and  C_16
REMARK    7  A    between atoms: C_25  and  C_26
REMARK    8  A    between atoms: N_28  and  C_29
REMARK                            x       y       z     vdW  Elec       q    Type
REMARK                         _______ _______ _______ _____ _____    ______ ____
ROOT
ATOM      1  C   UNL     1      -5.956   2.250  -0.020  0.00  0.00    +0.129 A 
ATOM      2  C   UNL     1      -7.186   1.588   0.017  0.00  0.00    +0.047 A 
ATOM      3  C   UNL     1      -8.355   2.285   0.009  0.00  0.00    +0.013 A 
ATOM      4  C   UNL     1      -8.330   3.686  -0.036  0.00  0.00    -0.006 A 
ATOM      5  C   UNL     1      -7.086   4.362  -0.073  0.00  0.00    -0.014 A 
ATOM      6  C   UNL     1      -5.896   3.615  -0.059  0.00  0.00    +0.054 A 
ATOM      7  C   UNL     1      -7.061   5.767  -0.118  0.00  0.00    +0.008 A 
ATOM      8  C   UNL     1      -8.227   6.472  -0.125  0.00  0.00    +0.001 A 
ATOM      9  C   UNL     1      -9.457   5.827  -0.089  0.00  0.00    +0.014 A 
ATOM     10  C   UNL     1      -9.529   4.443  -0.045  0.00  0.00    +0.045 A 
ENDROOT
BRANCH  10  11
ATOM     11  C   UNL     1     -10.838   3.765  -0.008  0.00  0.00    +0.249 C 
ATOM     12  O   UNL     1     -10.895   2.559   0.139  0.00  0.00    -0.270 OA
ATOM     13  N   UNL     1     -11.972   4.482  -0.136  0.00  0.00    -0.280 N 
ATOM     14  H   UNL     1     -11.930   5.450  -0.190  0.00  0.00    +0.155 HD
BRANCH  13  15
ATOM     15  C   UNL     1     -13.208   3.831  -0.193  0.00  0.00    +0.052 A 
ATOM     16  C   UNL     1     -13.433   2.676   0.552  0.00  0.00    +0.026 A 
ATOM     17  C   UNL     1     -14.674   2.067   0.464  0.00  0.00    +0.021 A 
ATOM     18  C   UNL     1     -15.641   2.621  -0.355  0.00  0.00    +0.111 A 
ATOM     19  N   UNL     1     -15.396   3.716  -1.048  0.00  0.00    -0.261 NA
ATOM     20  C   UNL     1     -14.232   4.330  -0.988  0.00  0.00    +0.134 A 
ENDBRANCH  13  15
ENDBRANCH  10  11
BRANCH   1  21
ATOM     21  O   UNL     1      -4.805   1.528  -0.011  0.00  0.00    -0.455 OA
BRANCH  21  25
ATOM     22  C   UNL     1      -1.136  -0.506  -0.288  0.00  0.00    +0.162 A 
ATOM     23  C   UNL     1      -2.319   0.163  -0.163  0.00  0.00    +0.063 A 
ATOM     24  C   UNL     1      -3.203   0.221  -1.250  0.00  0.00    +0.044 A 
ATOM     25  C   UNL     1      -4.436   0.905  -1.158  0.00  0.00    +0.139 A 
ATOM     26  C   UNL     1      -5.256   0.918  -2.272  0.00  0.00    +0.064 A 
ATOM     27  C   UNL     1      -4.851   0.270  -3.433  0.00  0.00    +0.086 A 
ATOM     28  N   UNL     1      -3.704  -0.363  -3.508  0.00  0.00    -0.360 N 
ATOM     29  C   UNL     1      -2.862  -0.416  -2.469  0.00  0.00    +0.054 A 
ATOM     30  C   UNL     1      -1.638  -1.097  -2.567  0.00  0.00    +0.075 A 
ATOM     31  C   UNL     1      -0.793  -1.132  -1.495  0.00  0.00    +0.163 A 
ATOM     32  H   UNL     1      -3.460  -0.803  -4.337  0.00  0.00    +0.165 HD
BRANCH  22  34
ATOM     33  C   UNL     1      -0.685   0.096   1.968  0.00  0.00    +0.277 C 
ATOM     34  O   UNL     1      -0.279  -0.561   0.766  0.00  0.00    -0.491 OA
ENDBRANCH  22  34
BRANCH  31  35
ATOM     35  O   UNL     1       0.393  -1.788  -1.597  0.00  0.00    -0.491 OA
ATOM     36  C   UNL     1       0.686  -2.406  -2.852  0.00  0.00    +0.277 C 
ENDBRANCH  31  35
ENDBRANCH  21  25
ENDBRANCH   1  21
TORSDOF 6
