REMARK  Name = CHEMBL24979
REMARK  8 active torsions:
REMARK  status: ('A' for Active; 'I' for Inactive)
REMARK    1  A    between atoms: C_1  and  N_2
REMARK    2  A    between atoms: C_5  and  C_8
REMARK    3  A    between atoms: C_8  and  C_9
REMARK    4  A    between atoms: C_9  and  O_10
REMARK    5  A    between atoms: O_10  and  C_11
REMARK    6  A    between atoms: C_16  and  O_17
REMARK    7  A    between atoms: O_17  and  C_18
REMARK    8  A    between atoms: N_23  and  C_24
REMARK                            x       y       z     vdW  Elec       q    Type
REMARK                         _______ _______ _______ _____ _____    ______ ____
ROOT
ATOM      1  C   UNL     1      -0.193  -7.045   3.650  0.00  0.00    +0.164 A 
ATOM      2  C   UNL     1       0.171  -6.364   4.791  0.00  0.00    +0.078 A 
ATOM      3  C   UNL     1       0.958  -7.004   5.755  0.00  0.00    +0.080 A 
ATOM      4  C   UNL     1       1.368  -8.344   5.542  0.00  0.00    +0.044 A 
ATOM      5  C   UNL     1       0.985  -9.014   4.374  0.00  0.00    +0.062 A 
ATOM      6  C   UNL     1       0.212  -8.372   3.449  0.00  0.00    +0.162 A 
ATOM      7  C   UNL     1       2.163  -8.965   6.535  0.00  0.00    +0.134 A 
ATOM      8  N   UNL     1       2.483  -8.261   7.614  0.00  0.00    -0.220 NA
ATOM      9  C   UNL     1       2.076  -7.011   7.769  0.00  0.00    +0.223 A 
ATOM     10  N   UNL     1       1.339  -6.385   6.884  0.00  0.00    -0.235 NA
ATOM     11  N   UNL     1       2.593 -10.267   6.386  0.00  0.00    -0.297 N 
ATOM     12  H   UNL     1       2.433 -10.739   5.553  0.00  0.00    +0.154 HD
ENDROOT
BRANCH  11  13
ATOM     13  C   UNL     1       3.261 -10.908   7.435  0.00  0.00    +0.068 A 
ATOM     14  C   UNL     1       3.159 -10.415   8.729  0.00  0.00    +0.027 A 
ATOM     15  C   UNL     1       3.820 -11.050   9.764  0.00  0.00    +0.017 A 
ATOM     16  C   UNL     1       4.583 -12.176   9.512  0.00  0.00    +0.021 A 
ATOM     17  C   UNL     1       4.688 -12.671   8.224  0.00  0.00    +0.055 A 
ATOM     18  C   UNL     1       4.025 -12.044   7.186  0.00  0.00    +0.145 A 
ATOM     19  F   UNL     1       4.123 -12.530   5.929  0.00  0.00    -0.204 F 
ATOM     20 BR   UNL     1       5.486 -13.040  10.931  0.00  0.00    -0.050 Br
ENDBRANCH  11  13
BRANCH   6  21
ATOM     21  O   UNL     1      -0.165  -9.025   2.317  0.00  0.00    -0.491 OA
ATOM     22  C   UNL     1       0.279 -10.376   2.170  0.00  0.00    +0.277 C 
ENDBRANCH   6  21
BRANCH   1  23
ATOM     23  O   UNL     1      -0.957  -6.426   2.713  0.00  0.00    -0.488 OA
BRANCH  23  24
ATOM     24  C   UNL     1      -1.337  -5.074   2.975  0.00  0.00    +0.229 C 
BRANCH  24  25
ATOM     25  C   UNL     1      -2.188  -4.549   1.817  0.00  0.00    +0.044 C 
BRANCH  25  30
ATOM     26  C   UNL     1      -2.998   1.079   1.374  0.00  0.00    -0.096 C 
ATOM     27  N   UNL     1      -2.658  -0.342   1.218  0.00  0.00    +0.378 N 
ATOM     28  C   UNL     1      -3.888  -1.143   1.245  0.00  0.00    -0.079 C 
ATOM     29  C   UNL     1      -3.548  -2.615   1.002  0.00  0.00    -0.015 C 
ATOM     30  C   UNL     1      -2.595  -3.101   2.098  0.00  0.00    -0.011 C 
ATOM     31  C   UNL     1      -1.349  -2.212   2.109  0.00  0.00    -0.015 C 
ATOM     32  C   UNL     1      -1.770  -0.755   2.311  0.00  0.00    -0.079 C 
ATOM     33  H   UNL     1      -2.189  -0.480   0.335  0.00  0.00    -0.082 HD
ENDBRANCH  25  30
ENDBRANCH  24  25
ENDBRANCH  23  24
ENDBRANCH   1  23
TORSDOF 6
