REMARK  Name = CHEMBL402792
REMARK  9 active torsions:
REMARK  status: ('A' for Active; 'I' for Inactive)
REMARK    1  A    between atoms: C_1  and  N_2
REMARK    2  A    between atoms: C_4  and  C_7
REMARK    3  A    between atoms: C_12  and  O_16
REMARK    4  A    between atoms: O_16  and  C_17
REMARK    5  A    between atoms: C_20  and  N_24
REMARK    6  A    between atoms: N_24  and  C_25
REMARK    7  A    between atoms: C_25  and  N_27
REMARK    8  A    between atoms: C_28  and  C_30
REMARK    9  A    between atoms: C_30  and  C_31
REMARK                            x       y       z     vdW  Elec       q    Type
REMARK                         _______ _______ _______ _____ _____    ______ ____
ROOT
ATOM      1  C   UNL     1       0.070  -6.558  -6.755  0.00  0.00    +0.164 A 
ATOM      2  C   UNL     1      -0.363  -7.834  -6.427  0.00  0.00    +0.051 A 
ATOM      3  C   UNL     1      -0.365  -8.830  -7.383  0.00  0.00    +0.027 A 
ATOM      4  C   UNL     1       0.067  -8.556  -8.674  0.00  0.00    +0.036 A 
ATOM      5  C   UNL     1       0.500  -7.278  -9.004  0.00  0.00    +0.065 A 
ATOM      6  C   UNL     1       0.496  -6.279  -8.048  0.00  0.00    +0.167 A 
ATOM      7  F   UNL     1       0.912  -5.035  -8.369  0.00  0.00    -0.202 F 
ENDROOT
BRANCH   4   8
ATOM      8  N   UNL     1       0.065  -9.567  -9.643  0.00  0.00    -0.297 N 
ATOM      9  H   UNL     1       0.839  -9.692 -10.214  0.00  0.00    +0.154 HD
BRANCH   8  10
ATOM     10  C   UNL     1      -1.011 -10.366  -9.781  0.00  0.00    +0.141 C 
ATOM     11  S   UNL     1      -2.329 -10.222  -8.698  0.00  0.00    -0.018 S 
BRANCH  10  12
ATOM     12  N   UNL     1      -1.050 -11.278 -10.773  0.00  0.00    -0.267 N 
ATOM     13  C   UNL     1      -2.126 -12.078 -10.911  0.00  0.00    +0.223 C 
ATOM     14  O   UNL     1      -3.059 -11.976 -10.144  0.00  0.00    -0.275 OA
ATOM     15  H   UNL     1      -0.303 -11.360 -11.386  0.00  0.00    +0.157 HD
BRANCH  13  16
ATOM     16  C   UNL     1      -2.169 -13.098 -12.019  0.00  0.00    +0.131 C 
BRANCH  16  17
ATOM     17  C   UNL     1      -3.470 -13.856 -11.954  0.00  0.00    -0.039 A 
ATOM     18  C   UNL     1      -3.562 -15.008 -11.196  0.00  0.00    +0.004 A 
ATOM     19  C   UNL     1      -4.755 -15.703 -11.136  0.00  0.00    +0.000 A 
ATOM     20  C   UNL     1      -5.857 -15.245 -11.834  0.00  0.00    +0.000 A 
ATOM     21  C   UNL     1      -5.766 -14.093 -12.592  0.00  0.00    +0.000 A 
ATOM     22  C   UNL     1      -4.574 -13.396 -12.648  0.00  0.00    +0.004 A 
ENDBRANCH  16  17
ENDBRANCH  13  16
ENDBRANCH  10  12
ENDBRANCH   8  10
ENDBRANCH   4   8
BRANCH   1  23
ATOM     23  O   UNL     1       0.071  -5.577  -5.813  0.00  0.00    -0.452 OA
BRANCH  23  29
ATOM     24  C   UNL     1      -1.117  -1.922  -2.836  0.00  0.00    +0.025 A 
ATOM     25  C   UNL     1      -2.088  -1.846  -3.782  0.00  0.00    +0.044 A 
ATOM     26  C   UNL     1      -2.099  -2.758  -4.854  0.00  0.00    +0.082 A 
ATOM     27  C   UNL     1      -1.057  -3.710  -4.847  0.00  0.00    +0.080 A 
ATOM     28  S   UNL     1      -0.128  -3.299  -3.393  0.00  0.00    -0.083 S 
ATOM     29  C   UNL     1      -0.939  -4.670  -5.835  0.00  0.00    +0.146 A 
ATOM     30  C   UNL     1      -1.888  -4.676  -6.856  0.00  0.00    +0.067 A 
ATOM     31  C   UNL     1      -2.894  -3.726  -6.826  0.00  0.00    +0.115 A 
ATOM     32  N   UNL     1      -2.982  -2.828  -5.877  0.00  0.00    -0.254 NA
BRANCH  24  36
ATOM     33  C   UNL     1       0.741   0.014   1.377  0.00  0.00    +0.172 C 
ATOM     34  N   UNL     1      -0.106  -0.224   0.205  0.00  0.00    -0.274 N 
ATOM     35  C   UNL     1       0.078  -1.187  -0.720  0.00  0.00    +0.117 A 
ATOM     36  C   UNL     1      -0.924  -1.071  -1.642  0.00  0.00    +0.026 A 
ATOM     37  C   UNL     1      -1.739   0.010  -1.248  0.00  0.00    +0.143 A 
ATOM     38  N   UNL     1      -1.248   0.507  -0.143  0.00  0.00    -0.179 NA
ENDBRANCH  24  36
ENDBRANCH  23  29
ENDBRANCH   1  23
TORSDOF 8
