REMARK  Name = CHEMBL357815
REMARK  7 active torsions:
REMARK  status: ('A' for Active; 'I' for Inactive)
REMARK    1  A    between atoms: C_1  and  O_2
REMARK    2  A    between atoms: O_2  and  C_3
REMARK    3  A    between atoms: C_8  and  O_9
REMARK    4  A    between atoms: O_9  and  C_10
REMARK    5  A    between atoms: C_10  and  C_11
REMARK    6  A    between atoms: C_11  and  N_12
REMARK    7  A    between atoms: N_21  and  C_22
REMARK                            x       y       z     vdW  Elec       q    Type
REMARK                         _______ _______ _______ _____ _____    ______ ____
ROOT
ATOM      1  C   UNL     1      -1.212  -0.536   0.754  0.00  0.00    +0.162 A 
ATOM      2  C   UNL     1      -2.359   0.166   0.516  0.00  0.00    +0.062 A 
ATOM      3  C   UNL     1      -3.598  -0.479   0.608  0.00  0.00    +0.044 A 
ATOM      4  C   UNL     1      -3.655  -1.854   0.947  0.00  0.00    +0.080 A 
ATOM      5  C   UNL     1      -2.467  -2.554   1.186  0.00  0.00    +0.078 A 
ATOM      6  C   UNL     1      -1.260  -1.898   1.083  0.00  0.00    +0.164 A 
ATOM      7  N   UNL     1      -4.856  -2.449   1.028  0.00  0.00    -0.235 NA
ATOM      8  C   UNL     1      -5.953  -1.767   0.797  0.00  0.00    +0.223 A 
ATOM      9  N   UNL     1      -5.948  -0.482   0.478  0.00  0.00    -0.220 NA
ATOM     10  C   UNL     1      -4.816   0.202   0.372  0.00  0.00    +0.134 A 
ATOM     11  N   UNL     1      -4.826   1.541   0.039  0.00  0.00    -0.297 N 
ATOM     12  H   UNL     1      -3.991   2.006  -0.128  0.00  0.00    +0.154 HD
ENDROOT
BRANCH  11  13
ATOM     13  C   UNL     1      -6.041   2.229  -0.057  0.00  0.00    +0.068 A 
ATOM     14  C   UNL     1      -7.183   1.712   0.541  0.00  0.00    +0.027 A 
ATOM     15  C   UNL     1      -8.381   2.394   0.445  0.00  0.00    +0.022 A 
ATOM     16  C   UNL     1      -8.445   3.591  -0.247  0.00  0.00    +0.044 A 
ATOM     17  C   UNL     1      -7.310   4.109  -0.845  0.00  0.00    +0.060 A 
ATOM     18  C   UNL     1      -6.106   3.435  -0.747  0.00  0.00    +0.146 A 
ATOM     19  F   UNL     1      -4.997   3.944  -1.327  0.00  0.00    -0.203 F 
ATOM     20 CL   UNL     1      -9.953   4.443  -0.365  0.00  0.00    -0.083 Cl
ENDBRANCH  11  13
BRANCH   1  22
ATOM     21  C   UNL     1      -0.025   1.479   0.325  0.00  0.00    +0.277 C 
ATOM     22  O   UNL     1      -0.009   0.091   0.664  0.00  0.00    -0.491 OA
ENDBRANCH   1  22
BRANCH   6  23
ATOM     23  O   UNL     1      -0.105  -2.576   1.309  0.00  0.00    -0.486 OA
BRANCH  23  24
ATOM     24  C   UNL     1      -0.220  -3.961   1.641  0.00  0.00    +0.252 C 
BRANCH  24  25
ATOM     25  C   UNL     1       1.174  -4.551   1.858  0.00  0.00    +0.186 C 
BRANCH  25  26
ATOM     26  N   UNL     1       1.056  -5.972   2.198  0.00  0.00    -0.248 N 
ATOM     27  C   UNL     1       1.668  -6.994   1.557  0.00  0.00    +0.130 A 
ATOM     28  C   UNL     1       1.284  -8.124   2.196  0.00  0.00    +0.156 A 
ATOM     29  N   UNL     1       0.467  -7.742   3.184  0.00  0.00    -0.138 NA
ATOM     30  N   UNL     1       0.356  -6.461   3.162  0.00  0.00    -0.066 NA
ENDBRANCH  25  26
ENDBRANCH  24  25
ENDBRANCH  23  24
ENDBRANCH   6  23
TORSDOF 6
