REMARK  Name = CHEMBL381648
REMARK  12 active torsions:
REMARK  status: ('A' for Active; 'I' for Inactive)
REMARK    1  A    between atoms: C_1  and  O_2
REMARK    2  A    between atoms: O_2  and  C_3
REMARK    3  A    between atoms: C_3  and  C_4
REMARK    4  A    between atoms: C_4  and  O_5
REMARK    5  A    between atoms: O_5  and  C_6
REMARK    6  A    between atoms: C_11  and  O_12
REMARK    7  A    between atoms: O_12  and  C_13
REMARK    8  A    between atoms: C_14  and  N_18
REMARK    9  A    between atoms: C_22  and  O_27
REMARK   10  A    between atoms: O_27  and  C_28
REMARK   11  A    between atoms: C_28  and  C_29
REMARK   12  A    between atoms: C_28  and  C_31
REMARK                            x       y       z     vdW  Elec       q    Type
REMARK                         _______ _______ _______ _____ _____    ______ ____
ROOT
ATOM      1  C   UNL     1      -0.839  -3.994  -1.028  0.00  0.00    +0.164 A 
ATOM      2  C   UNL     1       0.197  -4.876  -0.903  0.00  0.00    +0.078 A 
ATOM      3  C   UNL     1      -0.070  -6.251  -0.833  0.00  0.00    +0.080 A 
ATOM      4  C   UNL     1      -1.414  -6.705  -0.894  0.00  0.00    +0.048 A 
ATOM      5  C   UNL     1      -2.455  -5.780  -1.022  0.00  0.00    +0.063 A 
ATOM      6  C   UNL     1      -2.167  -4.445  -1.082  0.00  0.00    +0.162 A 
ATOM      7  C   UNL     1      -1.652  -8.102  -0.821  0.00  0.00    +0.164 A 
ATOM      8  N   UNL     1      -0.602  -8.911  -0.699  0.00  0.00    -0.216 NA
ATOM      9  C   UNL     1       0.630  -8.438  -0.647  0.00  0.00    +0.224 A 
ATOM     10  N   UNL     1       0.909  -7.156  -0.710  0.00  0.00    -0.235 NA
ENDROOT
BRANCH   7  11
ATOM     11  N   UNL     1      -2.917  -8.600  -0.873  0.00  0.00    -0.228 NA
ATOM     12  C   UNL     1      -3.476  -8.840  -2.025  0.00  0.00    +0.099 C 
ATOM     13  C   UNL     1      -4.933  -9.258  -2.145  0.00  0.00    +0.142 C 
ATOM     14  C   UNL     1      -5.564  -8.365  -3.192  0.00  0.00    +0.205 C 
ATOM     15  C   UNL     1      -4.806  -8.028  -4.409  0.00  0.00    +0.186 C 
ATOM     16  C   UNL     1      -3.458  -8.184  -4.467  0.00  0.00    +0.134 C 
ATOM     17  C   UNL     1      -2.729  -8.717  -3.308  0.00  0.00    +0.222 C 
ATOM     18  O   UNL     1      -1.561  -9.046  -3.395  0.00  0.00    -0.284 OA
ATOM     19 CL   UNL     1      -2.596  -7.750  -5.910  0.00  0.00    -0.076 Cl
ATOM     20  O   UNL     1      -6.684  -7.930  -3.029  0.00  0.00    -0.288 OA
BRANCH  15  21
ATOM     21  O   UNL     1      -5.466  -7.555  -5.492  0.00  0.00    -0.479 OA
BRANCH  21  22
ATOM     22  C   UNL     1      -6.084  -6.273  -5.365  0.00  0.00    +0.235 C 
BRANCH  22  23
ATOM     23  C   UNL     1      -5.066  -5.180  -5.697  0.00  0.00    +0.260 C 
ATOM     24  F   UNL     1      -4.042  -5.193  -4.744  0.00  0.00    -0.245 F 
ENDBRANCH  22  23
BRANCH  22  25
ATOM     25  C   UNL     1      -7.266  -6.179  -6.333  0.00  0.00    +0.260 C 
ATOM     26  F   UNL     1      -8.248  -7.102  -5.960  0.00  0.00    -0.245 F 
ENDBRANCH  22  25
ENDBRANCH  21  22
ENDBRANCH  15  21
ENDBRANCH   7  11
BRANCH   6  27
ATOM     27  O   UNL     1      -3.178  -3.545  -1.201  0.00  0.00    -0.491 OA
ATOM     28  C   UNL     1      -4.508  -4.066  -1.251  0.00  0.00    +0.277 C 
ENDBRANCH   6  27
BRANCH   1  29
ATOM     29  O   UNL     1      -0.580  -2.662  -1.095  0.00  0.00    -0.486 OA
BRANCH  29  30
ATOM     30  C   UNL     1       0.791  -2.264  -1.035  0.00  0.00    +0.257 C 
BRANCH  30  31
ATOM     31  C   UNL     1       0.884  -0.739  -1.125  0.00  0.00    +0.200 C 
BRANCH  31  33
ATOM     32  C   UNL     1       0.302   1.272   0.041  0.00  0.00    +0.194 C 
ATOM     33  O   UNL     1       0.270  -0.156   0.026  0.00  0.00    -0.380 OA
ENDBRANCH  31  33
ENDBRANCH  30  31
ENDBRANCH  29  30
ENDBRANCH   1  29
TORSDOF 10
