REMARK  Name = CHEMBL231411
REMARK  4 active torsions:
REMARK  status: ('A' for Active; 'I' for Inactive)
REMARK    1  A    between atoms: C_6  and  N_11
REMARK    2  A    between atoms: N_14  and  C_15
REMARK    3  A    between atoms: C_18  and  C_21
REMARK    4  A    between atoms: C_26  and  N_30
REMARK                            x       y       z     vdW  Elec       q    Type
REMARK                         _______ _______ _______ _____ _____    ______ ____
ROOT
ATOM      1  C   UNL     1       5.189  -6.115   0.486  0.00  0.00    +0.035 A 
ATOM      2  C   UNL     1       4.130  -6.881   0.015  0.00  0.00    +0.024 A 
ATOM      3  C   UNL     1       4.236  -8.255  -0.026  0.00  0.00    +0.010 A 
ATOM      4  C   UNL     1       5.407  -8.876   0.406  0.00  0.00    -0.017 A 
ATOM      5  C   UNL     1       6.468  -8.105   0.879  0.00  0.00    +0.010 A 
ATOM      6  C   UNL     1       6.359  -6.731   0.913  0.00  0.00    +0.024 A 
ENDROOT
BRANCH   4   7
ATOM      7  C   UNL     1       5.523 -10.353   0.364  0.00  0.00    +0.000 A 
ATOM      8  C   UNL     1       5.796 -11.055   1.489  0.00  0.00    +0.055 A 
ATOM      9  S   UNL     1       5.831 -12.746   0.926  0.00  0.00    -0.096 S 
ATOM     10  C   UNL     1       5.482 -12.477  -0.790  0.00  0.00    +0.025 A 
ATOM     11  C   UNL     1       5.340 -11.077  -0.891  0.00  0.00    +0.036 A 
ATOM     12  C   UNL     1       5.046 -10.579  -2.186  0.00  0.00    +0.125 A 
ATOM     13  N   UNL     1       4.915 -11.398  -3.209  0.00  0.00    -0.240 NA
ATOM     14  C   UNL     1       5.045 -12.711  -3.107  0.00  0.00    +0.114 A 
ATOM     15  C   UNL     1       5.339 -13.289  -1.901  0.00  0.00    +0.035 A 
BRANCH  12  16
ATOM     16  N   UNL     1       4.894  -9.212  -2.377  0.00  0.00    -0.343 N 
ATOM     17  H   UNL     1       5.319  -8.587  -1.769  0.00  0.00    +0.144 HD
ATOM     18  H   UNL     1       4.362  -8.882  -3.118  0.00  0.00    +0.144 HD
ENDBRANCH  12  16
ENDBRANCH   4   7
BRANCH   1  22
ATOM     19  N   UNL     1       3.769  -2.805   0.784  0.00  0.00    -0.269 N 
ATOM     20  C   UNL     1       3.900  -4.146   0.836  0.00  0.00    +0.308 C 
ATOM     21  O   UNL     1       2.953  -4.837   1.161  0.00  0.00    -0.252 OA
ATOM     22  N   UNL     1       5.079  -4.720   0.527  0.00  0.00    -0.269 N 
ATOM     23  H   UNL     1       4.503  -2.259   0.463  0.00  0.00    +0.156 HD
ATOM     24  H   UNL     1       5.852  -4.167   0.333  0.00  0.00    +0.156 HD
BRANCH  19  30
ATOM     25  C   UNL     1      -0.986   0.759   3.052  0.00  0.00    +0.001 A 
ATOM     26  C   UNL     1       0.225   1.395   3.320  0.00  0.00    +0.001 A 
ATOM     27  C   UNL     1       1.407   0.840   2.937  0.00  0.00    +0.008 A 
ATOM     28  C   UNL     1       1.410  -0.393   2.261  0.00  0.00    -0.016 A 
ATOM     29  C   UNL     1       2.611  -0.995   1.852  0.00  0.00    +0.031 A 
ATOM     30  C   UNL     1       2.574  -2.203   1.193  0.00  0.00    +0.035 A 
ATOM     31  C   UNL     1       1.353  -2.835   0.927  0.00  0.00    +0.024 A 
ATOM     32  C   UNL     1       0.178  -2.273   1.313  0.00  0.00    +0.010 A 
ATOM     33  C   UNL     1       0.179  -1.040   1.989  0.00  0.00    -0.018 A 
ATOM     34  C   UNL     1      -1.022  -0.435   2.400  0.00  0.00    +0.008 A 
ENDBRANCH  19  30
ENDBRANCH   1  22
TORSDOF 4
