REMARK  Name = CHEMBL244482
REMARK  7 active torsions:
REMARK  status: ('A' for Active; 'I' for Inactive)
REMARK    1  A    between atoms: C_1  and  O_2
REMARK    2  A    between atoms: O_2  and  C_3
REMARK    3  A    between atoms: C_11  and  O_15
REMARK    4  A    between atoms: O_15  and  C_16
REMARK    5  A    between atoms: C_19  and  N_22
REMARK    6  A    between atoms: N_25  and  C_26
REMARK    7  A    between atoms: C_28  and  C_33
REMARK                            x       y       z     vdW  Elec       q    Type
REMARK                         _______ _______ _______ _____ _____    ______ ____
ROOT
ATOM      1  C   UNL     1       4.620  -4.929  -8.174  0.00  0.00    +0.129 A 
ATOM      2  C   UNL     1       4.798  -3.567  -8.372  0.00  0.00    +0.048 A 
ATOM      3  C   UNL     1       5.410  -3.111  -9.523  0.00  0.00    +0.027 A 
ATOM      4  C   UNL     1       5.847  -4.016 -10.482  0.00  0.00    +0.035 A 
ATOM      5  C   UNL     1       5.668  -5.378 -10.283  0.00  0.00    +0.027 A 
ATOM      6  C   UNL     1       5.061  -5.833  -9.129  0.00  0.00    +0.048 A 
ENDROOT
BRANCH   4   7
ATOM      7  N   UNL     1       6.468  -3.554 -11.650  0.00  0.00    -0.269 N 
ATOM      8  C   UNL     1       7.261  -2.465 -11.607  0.00  0.00    +0.308 C 
ATOM      9  O   UNL     1       7.373  -1.835 -10.572  0.00  0.00    -0.252 OA
ATOM     10  N   UNL     1       7.931  -2.074 -12.709  0.00  0.00    -0.267 N 
ATOM     11  H   UNL     1       6.326  -4.017 -12.491  0.00  0.00    +0.156 HD
ATOM     12  H   UNL     1       7.797  -2.542 -13.549  0.00  0.00    +0.156 HD
BRANCH  10  13
ATOM     13  C   UNL     1       8.819  -0.994 -12.643  0.00  0.00    +0.071 A 
ATOM     14  C   UNL     1       8.650  -0.013 -11.675  0.00  0.00    +0.038 A 
ATOM     15  C   UNL     1       9.528   1.052 -11.612  0.00  0.00    +0.057 A 
ATOM     16  C   UNL     1      10.575   1.143 -12.511  0.00  0.00    +0.015 A 
ATOM     17  C   UNL     1      10.747   0.169 -13.477  0.00  0.00    +0.041 A 
ATOM     18  C   UNL     1       9.875  -0.903 -13.543  0.00  0.00    +0.145 A 
ATOM     19  F   UNL     1      10.046  -1.858 -14.483  0.00  0.00    -0.204 F 
BRANCH  15  20
ATOM     20  C   UNL     1       9.345   2.117 -10.561  0.00  0.00    +0.417 C 
ATOM     21  F   UNL     1      10.057   1.764  -9.410  0.00  0.00    -0.166 F 
ATOM     22  F   UNL     1       9.821   3.339 -11.048  0.00  0.00    -0.166 F 
ATOM     23  F   UNL     1       7.986   2.236 -10.251  0.00  0.00    -0.166 F 
ENDBRANCH  15  20
ENDBRANCH  10  13
ENDBRANCH   4   7
BRANCH   1  24
ATOM     24  O   UNL     1       4.017  -5.377  -7.041  0.00  0.00    -0.456 OA
BRANCH  24  33
ATOM     25  C   UNL     1      -4.297  -4.276  -6.928  0.00  0.00    +0.406 C 
ATOM     26  O   UNL     1      -3.912  -4.885  -5.950  0.00  0.00    -0.226 OA
ATOM     27  N   UNL     1      -3.413  -3.872  -7.861  0.00  0.00    -0.230 N 
ATOM     28  C   UNL     1      -2.064  -4.150  -7.705  0.00  0.00    +0.168 A 
ATOM     29  N   UNL     1      -1.464  -4.793  -6.731  0.00  0.00    -0.224 NA
ATOM     30  C   UNL     1      -0.127  -4.993  -6.708  0.00  0.00    +0.081 A 
ATOM     31  C   UNL     1       0.638  -5.663  -5.726  0.00  0.00    +0.032 A 
ATOM     32  C   UNL     1       1.987  -5.779  -5.850  0.00  0.00    +0.048 A 
ATOM     33  C   UNL     1       2.667  -5.247  -6.941  0.00  0.00    +0.130 A 
ATOM     34  C   UNL     1       1.951  -4.582  -7.927  0.00  0.00    +0.063 A 
ATOM     35  C   UNL     1       0.589  -4.463  -7.805  0.00  0.00    +0.044 A 
ATOM     36  S   UNL     1      -0.701  -3.730  -8.782  0.00  0.00    -0.052 S 
ATOM     37  H   UNL     1      -3.720  -3.385  -8.642  0.00  0.00    +0.160 HD
BRANCH  25  39
ATOM     38  C   UNL     1      -6.488  -4.465  -6.052  0.00  0.00    +0.282 C 
ATOM     39  O   UNL     1      -5.607  -4.006  -7.080  0.00  0.00    -0.453 OA
ENDBRANCH  25  39
ENDBRANCH  24  33
ENDBRANCH   1  24
TORSDOF 6
