REMARK  Name = CHEMBL390353
REMARK  9 active torsions:
REMARK  status: ('A' for Active; 'I' for Inactive)
REMARK    1  A    between atoms: C_1  and  N_2
REMARK    2  A    between atoms: N_5  and  C_8
REMARK    3  A    between atoms: C_8  and  C_9
REMARK    4  A    between atoms: C_9  and  C_10
REMARK    5  A    between atoms: C_22  and  C_23
REMARK    6  A    between atoms: C_25  and  C_28
REMARK    7  A    between atoms: C_29  and  C_30
REMARK    8  A    between atoms: C_30  and  O_31
REMARK    9  A    between atoms: O_31  and  C_32
REMARK                            x       y       z     vdW  Elec       q    Type
REMARK                         _______ _______ _______ _____ _____    ______ ____
ROOT
ATOM      1  C   UNL     1       0.086  -6.101   2.242  0.00  0.00    -0.049 A 
ATOM      2  C   UNL     1      -0.990  -6.845   2.692  0.00  0.00    +0.004 A 
ATOM      3  C   UNL     1      -0.951  -8.223   2.643  0.00  0.00    +0.010 A 
ATOM      4  C   UNL     1       0.178  -8.870   2.136  0.00  0.00    +0.006 A 
ATOM      5  C   UNL     1       1.255  -8.114   1.686  0.00  0.00    -0.033 A 
ATOM      6  C   UNL     1       1.205  -6.736   1.734  0.00  0.00    +0.008 A 
ATOM      7  C   UNL     1       2.318  -9.069   1.202  0.00  0.00    +0.075 C 
ATOM      8  C   UNL     1       1.762 -10.456   1.411  0.00  0.00    +0.010 A 
ATOM      9  C   UNL     1       0.482 -10.314   1.971  0.00  0.00    +0.097 A 
ATOM     10  N   UNL     1      -0.016 -11.522   2.160  0.00  0.00    -0.173 NA
ATOM     11  H   UNL     1       0.822 -13.427   1.752  0.00  0.00    +0.189 HD
ATOM     12  N   UNL     1       0.927 -12.463   1.729  0.00  0.00    -0.276 N 
ATOM     13  C   UNL     1       2.018 -11.786   1.270  0.00  0.00    +0.070 A 
ENDROOT
BRANCH  13  14
ATOM     14  C   UNL     1       3.253 -12.387   0.719  0.00  0.00    +0.008 A 
ATOM     15  C   UNL     1       3.188 -13.424  -0.200  0.00  0.00    +0.034 A 
ATOM     16  C   UNL     1       4.356 -13.949  -0.683  0.00  0.00    +0.063 A 
ATOM     17  S   UNL     1       5.587 -12.973   0.164  0.00  0.00    -0.088 S 
ATOM     18  C   UNL     1       4.486 -11.926   1.102  0.00  0.00    +0.056 A 
BRANCH  16  19
ATOM     19  C   UNL     1       4.543 -15.010  -1.626  0.00  0.00    -0.056 C 
ATOM     20  C   UNL     1       4.696 -15.880  -2.400  0.00  0.00    -0.056 C 
BRANCH  20  21
ATOM     21  C   UNL     1       4.888 -16.970  -3.369  0.00  0.00    +0.318 C 
BRANCH  21  22
ATOM     22  O   UNL     1       6.286 -17.181  -3.578  0.00  0.00    -0.480 OA
BRANCH  22  23
ATOM     23  C   UNL     1       6.638 -18.161  -4.452  0.00  0.00    +0.122 A 
ATOM     24  C   UNL     1       5.659 -18.900  -5.099  0.00  0.00    +0.046 A 
ATOM     25  C   UNL     1       6.019 -19.895  -5.987  0.00  0.00    +0.004 A 
ATOM     26  C   UNL     1       7.355 -20.155  -6.231  0.00  0.00    +0.000 A 
ATOM     27  C   UNL     1       8.334 -19.420  -5.586  0.00  0.00    +0.004 A 
ATOM     28  C   UNL     1       7.978 -18.420  -4.702  0.00  0.00    +0.046 A 
ENDBRANCH  22  23
ENDBRANCH  21  22
ENDBRANCH  20  21
ENDBRANCH  16  19
ENDBRANCH  13  14
BRANCH   1  29
ATOM     29  C   UNL     1       0.036  -4.596   2.298  0.00  0.00    +0.016 C 
BRANCH  29  30
ATOM     30  C   UNL     1      -0.562  -4.056   0.998  0.00  0.00    -0.074 C 
BRANCH  30  35
ATOM     31  C   UNL     1      -0.018   1.465   0.010  0.00  0.00    +0.104 C 
ATOM     32  N   UNL     1       0.002  -0.004   0.002  0.00  0.00    -0.309 NA
ATOM     33  C   UNL     1      -1.361  -0.549  -0.076  0.00  0.00    +0.065 C 
ATOM     34  C   UNL     1      -1.293  -2.076  -0.143  0.00  0.00    -0.063 C 
ATOM     35  N   UNL     1      -0.611  -2.589   1.053  0.00  0.00    +0.382 N 
ATOM     36  C   UNL     1       0.757  -2.055   1.104  0.00  0.00    -0.063 C 
ATOM     37  C   UNL     1       0.707  -0.528   1.181  0.00  0.00    +0.065 C 
ATOM     38  H   UNL     1      -1.115  -2.300   1.878  0.00  0.00    -0.082 HD
ENDBRANCH  30  35
ENDBRANCH  29  30
ENDBRANCH   1  29
TORSDOF 8
