REMARK  Name = CHEMBL382730
REMARK  10 active torsions:
REMARK  status: ('A' for Active; 'I' for Inactive)
REMARK    1  A    between atoms: C_1  and  N_2
REMARK    2  A    between atoms: C_5  and  C_8
REMARK    3  A    between atoms: C_8  and  O_9
REMARK    4  A    between atoms: O_9  and  C_10
REMARK    5  A    between atoms: C_15  and  O_16
REMARK    6  A    between atoms: O_16  and  C_17
REMARK    7  A    between atoms: C_18  and  N_22
REMARK    8  A    between atoms: C_26  and  O_30
REMARK    9  A    between atoms: O_30  and  C_31
REMARK   10  A    between atoms: C_31  and  C_32
REMARK                            x       y       z     vdW  Elec       q    Type
REMARK                         _______ _______ _______ _____ _____    ______ ____
ROOT
ATOM      1  C   UNL     1       0.341  -5.995   2.235  0.00  0.00    +0.164 A 
ATOM      2  C   UNL     1      -0.103  -6.749   1.186  0.00  0.00    +0.078 A 
ATOM      3  C   UNL     1       0.020  -8.145   1.236  0.00  0.00    +0.080 A 
ATOM      4  C   UNL     1       0.605  -8.753   2.378  0.00  0.00    +0.048 A 
ATOM      5  C   UNL     1       1.052  -7.958   3.437  0.00  0.00    +0.063 A 
ATOM      6  C   UNL     1       0.925  -6.599   3.360  0.00  0.00    +0.162 A 
ATOM      7  C   UNL     1       0.717 -10.168   2.399  0.00  0.00    +0.164 A 
ATOM      8  N   UNL     1       0.266 -10.847   1.347  0.00  0.00    -0.216 NA
ATOM      9  C   UNL     1      -0.271 -10.233   0.308  0.00  0.00    +0.224 A 
ATOM     10  N   UNL     1      -0.400  -8.928   0.234  0.00  0.00    -0.235 NA
ENDROOT
BRANCH   7  11
ATOM     11  N   UNL     1       1.269 -10.811   3.463  0.00  0.00    -0.228 NA
ATOM     12  C   UNL     1       0.530 -11.122   4.491  0.00  0.00    +0.098 C 
ATOM     13  C   UNL     1      -0.976 -10.914   4.496  0.00  0.00    +0.142 C 
ATOM     14  C   UNL     1      -1.599 -12.212   4.962  0.00  0.00    +0.203 C 
ATOM     15  C   UNL     1      -0.967 -12.966   6.062  0.00  0.00    +0.167 C 
ATOM     16  C   UNL     1       0.320 -12.738   6.423  0.00  0.00    +0.102 C 
ATOM     17  C   UNL     1       1.108 -11.711   5.731  0.00  0.00    +0.204 C 
ATOM     18  O   UNL     1       2.190 -11.354   6.157  0.00  0.00    -0.286 OA
ATOM     19  O   UNL     1      -2.606 -12.627   4.438  0.00  0.00    -0.288 OA
BRANCH  15  20
ATOM     20  O   UNL     1      -1.686 -13.902   6.723  0.00  0.00    -0.484 OA
BRANCH  20  21
ATOM     21  C   UNL     1      -1.024 -14.601   7.779  0.00  0.00    +0.264 C 
BRANCH  21  22
ATOM     22  C   UNL     1      -1.974 -15.597   8.394  0.00  0.00    -0.010 A 
ATOM     23  C   UNL     1      -2.779 -15.220   9.453  0.00  0.00    +0.007 A 
ATOM     24  C   UNL     1      -3.651 -16.133  10.017  0.00  0.00    +0.000 A 
ATOM     25  C   UNL     1      -3.717 -17.422   9.523  0.00  0.00    +0.000 A 
ATOM     26  C   UNL     1      -2.912 -17.799   8.464  0.00  0.00    +0.000 A 
ATOM     27  C   UNL     1      -2.044 -16.884   7.897  0.00  0.00    +0.007 A 
ENDBRANCH  21  22
ENDBRANCH  20  21
ENDBRANCH  15  20
ENDBRANCH   7  11
BRANCH   6  28
ATOM     28  O   UNL     1       1.364  -5.824   4.386  0.00  0.00    -0.491 OA
ATOM     29  C   UNL     1       1.949  -6.497   5.503  0.00  0.00    +0.277 C 
ENDBRANCH   6  28
BRANCH   1  30
ATOM     30  O   UNL     1       0.222  -4.643   2.186  0.00  0.00    -0.488 OA
BRANCH  30  31
ATOM     31  C   UNL     1      -0.380  -4.086   1.016  0.00  0.00    +0.232 C 
BRANCH  31  36
ATOM     32  C   UNL     1       0.248   1.496   0.031  0.00  0.00    -0.096 C 
ATOM     33  N   UNL     1       0.231   0.027   0.022  0.00  0.00    +0.378 N 
ATOM     34  C   UNL     1      -1.158  -0.446   0.039  0.00  0.00    -0.079 C 
ATOM     35  C   UNL     1      -1.183  -1.973  -0.052  0.00  0.00    -0.012 C 
ATOM     36  C   UNL     1      -0.427  -2.562   1.142  0.00  0.00    +0.023 C 
ATOM     37  C   UNL     1       0.999  -2.005   1.157  0.00  0.00    -0.012 C 
ATOM     38  C   UNL     1       0.943  -0.476   1.203  0.00  0.00    -0.079 C 
ATOM     39  H   UNL     1       0.688  -0.309  -0.813  0.00  0.00    -0.082 HD
ENDBRANCH  31  36
ENDBRANCH  30  31
ENDBRANCH   1  30
TORSDOF 8
