REMARK  Name = CHEMBL404571
REMARK  4 active torsions:
REMARK  status: ('A' for Active; 'I' for Inactive)
REMARK    1  A    between atoms: C_3  and  C_28
REMARK    2  A    between atoms: C_5  and  N_7
REMARK    3  A    between atoms: N_10  and  C_11
REMARK    4  A    between atoms: C_14  and  C_17
REMARK                            x       y       z     vdW  Elec       q    Type
REMARK                         _______ _______ _______ _____ _____    ______ ____
ROOT
ATOM      1  C   UNL     1      -0.655  -5.633  -0.481  0.00  0.00    +0.035 A 
ATOM      2  C   UNL     1      -1.823  -4.912  -0.705  0.00  0.00    +0.024 A 
ATOM      3  C   UNL     1      -3.047  -5.539  -0.625  0.00  0.00    +0.012 A 
ATOM      4  C   UNL     1      -3.115  -6.899  -0.318  0.00  0.00    +0.001 A 
ATOM      5  C   UNL     1      -1.941  -7.620  -0.094  0.00  0.00    +0.012 A 
ATOM      6  C   UNL     1      -0.719  -6.989  -0.181  0.00  0.00    +0.024 A 
ENDROOT
BRANCH   4   7
ATOM      7  C   UNL     1      -4.429  -7.575  -0.230  0.00  0.00    +0.083 A 
ATOM      8  C   UNL     1      -4.707  -8.440   0.843  0.00  0.00    +0.067 A 
ATOM      9  C   UNL     1      -5.967  -9.070   0.899  0.00  0.00    +0.071 A 
ATOM     10  C   UNL     1      -6.885  -8.803  -0.118  0.00  0.00    +0.047 A 
ATOM     11  C   UNL     1      -6.534  -7.949  -1.125  0.00  0.00    +0.113 A 
ATOM     12  N   UNL     1      -5.349  -7.362  -1.159  0.00  0.00    -0.254 NA
ATOM     13  N   UNL     1      -5.973  -9.844   2.023  0.00  0.00    -0.275 N 
ATOM     14  H   UNL     1      -6.714 -10.395   2.321  0.00  0.00    +0.189 HD
ATOM     15  N   UNL     1      -4.743  -9.716   2.678  0.00  0.00    -0.158 NA
ATOM     16  C   UNL     1      -3.967  -8.898   2.015  0.00  0.00    +0.148 A 
ATOM     17  N   UNL     1      -2.666  -8.529   2.366  0.00  0.00    -0.341 N 
ATOM     18  H   UNL     1      -2.271  -7.726   1.990  0.00  0.00    +0.144 HD
ATOM     19  H   UNL     1      -2.157  -9.075   2.985  0.00  0.00    +0.144 HD
ENDBRANCH   4   7
BRANCH   1  23
ATOM     20  N   UNL     1       1.873  -3.057  -0.373  0.00  0.00    -0.269 N 
ATOM     21  C   UNL     1       0.704  -3.704  -0.196  0.00  0.00    +0.308 C 
ATOM     22  O   UNL     1      -0.244  -3.121   0.295  0.00  0.00    -0.252 OA
ATOM     23  N   UNL     1       0.585  -4.995  -0.563  0.00  0.00    -0.269 N 
ATOM     24  H   UNL     1       2.605  -3.497  -0.834  0.00  0.00    +0.156 HD
ATOM     25  H   UNL     1       1.360  -5.481  -0.884  0.00  0.00    +0.156 HD
BRANCH  20  30
ATOM     26  C   UNL     1       2.991   0.435  -0.100  0.00  0.00    +0.002 A 
ATOM     27  C   UNL     1       2.346   0.826   1.059  0.00  0.00    +0.012 A 
ATOM     28  C   UNL     1       1.544  -0.068   1.743  0.00  0.00    +0.057 A 
ATOM     29  C   UNL     1       1.385  -1.357   1.271  0.00  0.00    +0.035 A 
ATOM     30  C   UNL     1       2.032  -1.753   0.107  0.00  0.00    +0.035 A 
ATOM     31  C   UNL     1       2.837  -0.852  -0.577  0.00  0.00    +0.023 A 
BRANCH  28  32
ATOM     32  C   UNL     1       0.843   0.362   3.006  0.00  0.00    +0.417 C 
ATOM     33  F   UNL     1       1.155   1.698   3.280  0.00  0.00    -0.166 F 
ATOM     34  F   UNL     1      -0.540   0.231   2.839  0.00  0.00    -0.166 F 
ATOM     35  F   UNL     1       1.263  -0.443   4.070  0.00  0.00    -0.166 F 
ENDBRANCH  28  32
ENDBRANCH  20  30
ENDBRANCH   1  23
TORSDOF 4
