REMARK  Name = CHEMBL204727
REMARK  2 active torsions:
REMARK  status: ('A' for Active; 'I' for Inactive)
REMARK    1  A    between atoms: C_7  and  N_21
REMARK    2  A    between atoms: C_8  and  C_12
REMARK                            x       y       z     vdW  Elec       q    Type
REMARK                         _______ _______ _______ _____ _____    ______ ____
ROOT
ATOM      1  C   UNL     1       0.310   1.621   0.015  0.00  0.00    +0.001 A 
ATOM      2  C   UNL     1       1.569   2.203  -0.021  0.00  0.00    +0.002 A 
ATOM      3  C   UNL     1       2.704   1.423  -0.047  0.00  0.00    +0.026 A 
ATOM      4  C   UNL     1       2.591   0.036  -0.039  0.00  0.00    +0.051 A 
ATOM      5  C   UNL     1       1.313  -0.549  -0.003  0.00  0.00    +0.020 A 
ATOM      6  C   UNL     1       0.175   0.261   0.023  0.00  0.00    +0.012 A 
ATOM      7  C   UNL     1       1.201  -2.014   0.006  0.00  0.00    +0.050 A 
ATOM      8  C   UNL     1       2.378  -2.765  -0.022  0.00  0.00    +0.105 A 
ATOM      9  C   UNL     1       3.629  -2.103  -0.058  0.00  0.00    +0.262 A 
ATOM     10  N   UNL     1       3.717  -0.762  -0.065  0.00  0.00    -0.321 N 
ATOM     11  O   UNL     1       4.652  -2.765  -0.082  0.00  0.00    -0.267 OA
ATOM     12  H   UNL     1       4.592  -0.346  -0.090  0.00  0.00    +0.169 HD
ENDROOT
BRANCH   8  13
ATOM     13  C   UNL     1       2.319  -4.235  -0.014  0.00  0.00    +0.170 A 
ATOM     14  N   UNL     1       3.402  -5.068   0.082  0.00  0.00    -0.224 NA
ATOM     15  C   UNL     1       2.919  -6.363   0.054  0.00  0.00    +0.110 A 
ATOM     16  C   UNL     1       3.511  -7.616   0.113  0.00  0.00    +0.033 A 
ATOM     17  C   UNL     1       2.691  -8.732   0.056  0.00  0.00    +0.022 A 
ATOM     18  C   UNL     1       1.321  -8.565  -0.058  0.00  0.00    +0.113 A 
ATOM     19  N   UNL     1       0.778  -7.368  -0.113  0.00  0.00    -0.234 NA
ATOM     20  C   UNL     1       1.520  -6.263  -0.062  0.00  0.00    +0.180 A 
ATOM     21  N   UNL     1       1.218  -4.949  -0.092  0.00  0.00    -0.206 NA
ENDBRANCH   8  13
BRANCH   7  22
ATOM     22  N   UNL     1      -0.027  -2.627   0.041  0.00  0.00    -0.357 N 
ATOM     23  H   UNL     1      -0.832  -2.096   0.143  0.00  0.00    +0.142 HD
ATOM     24  H   UNL     1      -0.090  -3.592  -0.036  0.00  0.00    +0.142 HD
ENDBRANCH   7  22
TORSDOF 2
