REMARK  Name = CHEMBL150826
REMARK  10 active torsions:
REMARK  status: ('A' for Active; 'I' for Inactive)
REMARK    1  A    between atoms: C_1  and  O_2
REMARK    2  A    between atoms: O_2  and  C_3
REMARK    3  A    between atoms: C_3  and  C_4
REMARK    4  A    between atoms: C_4  and  O_5
REMARK    5  A    between atoms: O_5  and  C_6
REMARK    6  A    between atoms: C_11  and  O_12
REMARK    7  A    between atoms: O_12  and  C_13
REMARK    8  A    between atoms: C_14  and  N_18
REMARK    9  A    between atoms: N_18  and  C_19
REMARK   10  A    between atoms: C_21  and  O_27
REMARK                            x       y       z     vdW  Elec       q    Type
REMARK                         _______ _______ _______ _____ _____    ______ ____
ROOT
ATOM      1  C   UNL     1      -1.579  -4.269   1.799  0.00  0.00    +0.164 A 
ATOM      2  C   UNL     1      -1.724  -5.097   0.724  0.00  0.00    +0.077 A 
ATOM      3  C   UNL     1      -1.145  -6.376   0.748  0.00  0.00    +0.070 A 
ATOM      4  C   UNL     1      -0.417  -6.783   1.895  0.00  0.00    +0.026 A 
ATOM      5  C   UNL     1      -0.283  -5.914   2.984  0.00  0.00    +0.061 A 
ATOM      6  C   UNL     1      -0.853  -4.674   2.929  0.00  0.00    +0.162 A 
ATOM      7  C   UNL     1       0.157  -8.077   1.892  0.00  0.00    +0.061 A 
ATOM      8  C   UNL     1      -0.037  -8.856   0.761  0.00  0.00    +0.156 A 
ATOM      9  N   UNL     1      -0.732  -8.388  -0.263  0.00  0.00    -0.180 NA
ATOM     10  N   UNL     1      -1.262  -7.219  -0.283  0.00  0.00    -0.277 N 
ATOM     11  H   UNL     1      -1.760  -6.939  -1.067  0.00  0.00    +0.189 HD
ENDROOT
BRANCH   6  12
ATOM     12  O   UNL     1      -0.720  -3.825   3.983  0.00  0.00    -0.491 OA
ATOM     13  C   UNL     1       0.030  -4.296   5.104  0.00  0.00    +0.277 C 
ENDBRANCH   6  12
BRANCH   7  14
ATOM     14  N   UNL     1       0.884  -8.548   2.978  0.00  0.00    -0.310 N 
ATOM     15  H   UNL     1       0.939  -8.020   3.790  0.00  0.00    +0.152 HD
BRANCH  14  16
ATOM     16  C   UNL     1       1.536  -9.783   2.900  0.00  0.00    +0.071 A 
ATOM     17  C   UNL     1       2.232 -10.130   1.751  0.00  0.00    +0.073 A 
ATOM     18  C   UNL     1       2.878 -11.354   1.677  0.00  0.00    +0.137 A 
ATOM     19  C   UNL     1       2.827 -12.231   2.752  0.00  0.00    +0.085 A 
ATOM     20  C   UNL     1       2.133 -11.885   3.897  0.00  0.00    +0.064 A 
ATOM     21  C   UNL     1       1.492 -10.662   3.977  0.00  0.00    +0.146 A 
ATOM     22  F   UNL     1       0.819 -10.324   5.098  0.00  0.00    -0.203 F 
ATOM     23 CL   UNL     1       3.636 -13.765   2.659  0.00  0.00    -0.080 Cl
BRANCH  18  24
ATOM     24  O   UNL     1       3.560 -11.696   0.552  0.00  0.00    -0.505 OA
ATOM     25  H   UNL     1       4.490 -11.429   0.559  0.00  0.00    +0.292 HD
ENDBRANCH  18  24
ENDBRANCH  14  16
ENDBRANCH   7  14
BRANCH   1  26
ATOM     26  O   UNL     1      -2.141  -3.032   1.772  0.00  0.00    -0.486 OA
BRANCH  26  27
ATOM     27  C   UNL     1      -2.868  -2.675   0.595  0.00  0.00    +0.257 C 
BRANCH  27  28
ATOM     28  C   UNL     1      -3.423  -1.258   0.748  0.00  0.00    +0.200 C 
BRANCH  28  30
ATOM     29  C   UNL     1      -2.752   1.033   0.964  0.00  0.00    +0.194 C 
ATOM     30  O   UNL     1      -2.340  -0.327   0.820  0.00  0.00    -0.380 OA
ENDBRANCH  28  30
ENDBRANCH  27  28
ENDBRANCH  26  27
ENDBRANCH   1  26
TORSDOF 8
