REMARK  Name = CHEMBL204727
REMARK  2 active torsions:
REMARK  status: ('A' for Active; 'I' for Inactive)
REMARK    1  A    between atoms: C_7  and  N_22
REMARK    2  A    between atoms: C_8  and  C_12
REMARK                            x       y       z     vdW  Elec       q    Type
REMARK                         _______ _______ _______ _____ _____    ______ ____
ROOT
ATOM      1  C   UNL     1       0.178   1.523   0.028  0.00  0.00    +0.001 A 
ATOM      2  C   UNL     1       1.410   2.161  -0.005  0.00  0.00    +0.002 A 
ATOM      3  C   UNL     1       2.579   1.432  -0.036  0.00  0.00    +0.026 A 
ATOM      4  C   UNL     1       2.527   0.042  -0.033  0.00  0.00    +0.051 A 
ATOM      5  C   UNL     1       1.277  -0.600   0.001  0.00  0.00    +0.020 A 
ATOM      6  C   UNL     1       0.103   0.159   0.032  0.00  0.00    +0.012 A 
ATOM      7  C   UNL     1       1.229  -2.068   0.004  0.00  0.00    +0.050 A 
ATOM      8  C   UNL     1       2.439  -2.766  -0.028  0.00  0.00    +0.103 A 
ATOM      9  C   UNL     1       3.659  -2.049  -0.061  0.00  0.00    +0.262 A 
ATOM     10  N   UNL     1       3.687  -0.706  -0.063  0.00  0.00    -0.321 N 
ATOM     11  O   UNL     1       4.710  -2.666  -0.089  0.00  0.00    -0.267 OA
ATOM     12  H   UNL     1       4.543  -0.251  -0.087  0.00  0.00    +0.169 HD
ENDROOT
BRANCH   8  13
ATOM     13  C   UNL     1       2.444  -4.238  -0.026  0.00  0.00    +0.147 A 
ATOM     14  N   UNL     1       1.377  -4.998  -0.116  0.00  0.00    -0.226 NA
ATOM     15  C   UNL     1       1.747  -6.301  -0.084  0.00  0.00    +0.108 A 
ATOM     16  C   UNL     1       1.040  -7.507  -0.144  0.00  0.00    +0.033 A 
ATOM     17  C   UNL     1       1.757  -8.688  -0.084  0.00  0.00    +0.022 A 
ATOM     18  C   UNL     1       3.137  -8.644   0.032  0.00  0.00    +0.113 A 
ATOM     19  N   UNL     1       3.785  -7.497   0.087  0.00  0.00    -0.236 NA
ATOM     20  H   UNL     1       4.481  -4.711   0.136  0.00  0.00    +0.169 HD
ATOM     21  C   UNL     1       3.149  -6.339   0.034  0.00  0.00    +0.158 A 
ATOM     22  N   UNL     1       3.565  -5.023   0.063  0.00  0.00    -0.323 N 
ENDBRANCH   8  13
BRANCH   7  23
ATOM     23  N   UNL     1       0.029  -2.736   0.037  0.00  0.00    -0.357 N 
ATOM     24  H   UNL     1      -0.799  -2.241   0.139  0.00  0.00    +0.142 HD
ATOM     25  H   UNL     1       0.010  -3.702  -0.041  0.00  0.00    +0.142 HD
ENDBRANCH   7  23
TORSDOF 2
