REMARK  Name = CHEMBL204163
REMARK  3 active torsions:
REMARK  status: ('A' for Active; 'I' for Inactive)
REMARK    1  A    between atoms: C_6  and  N_7
REMARK    2  A    between atoms: C_11  and  N_14
REMARK    3  A    between atoms: C_19  and  C_21
REMARK                            x       y       z     vdW  Elec       q    Type
REMARK                         _______ _______ _______ _____ _____    ______ ____
ROOT
ATOM      1  C   UNL     1      -0.016   1.387   0.010  0.00  0.00    +0.087 A 
ATOM      2  C   UNL     1       1.200   2.063  -0.002  0.00  0.00    +0.129 A 
ATOM      3  N   UNL     1       2.330   1.359  -0.023  0.00  0.00    -0.220 NA
ATOM      4  C   UNL     1       2.306   0.042  -0.033  0.00  0.00    +0.225 A 
ATOM      5  N   UNL     1       1.176  -0.634  -0.023  0.00  0.00    -0.221 NA
ATOM      6  C   UNL     1       0.003  -0.004  -0.001  0.00  0.00    +0.126 A 
ATOM      7  N   UNL     1       1.234   3.451   0.008  0.00  0.00    -0.279 N 
ATOM      8  C   UNL     1       2.445   4.112   0.105  0.00  0.00    +0.165 A 
ATOM      9  N   UNL     1       3.659   3.595   0.102  0.00  0.00    -0.232 NA
ATOM     10  C   UNL     1       4.725   4.351   0.201  0.00  0.00    +0.139 A 
ATOM     11  C   UNL     1       4.503   5.716   0.309  0.00  0.00    +0.110 A 
ATOM     12  S   UNL     1       2.719   5.766   0.246  0.00  0.00    -0.042 S 
ATOM     13  H   UNL     1       0.409   3.957  -0.052  0.00  0.00    +0.155 HD
ENDROOT
BRANCH   6  14
ATOM     14  N   UNL     1      -1.182  -0.724   0.010  0.00  0.00    -0.315 N 
ATOM     15  C   UNL     1      -1.115  -2.195   0.116  0.00  0.00    +0.106 C 
ATOM     16  C   UNL     1      -2.176  -2.756   1.080  0.00  0.00    +0.017 C 
ATOM     17  C   UNL     1      -2.294  -1.868   2.295  0.00  0.00    -0.015 C 
ATOM     18  C   UNL     1      -3.380  -0.824   2.055  0.00  0.00    -0.074 C 
ATOM     19  C   UNL     1      -2.920   0.375   1.337  0.00  0.00    +0.003 C 
ATOM     20  C   UNL     1      -2.432  -0.003  -0.077  0.00  0.00    +0.105 C 
BRANCH  18  21
ATOM     21  N   UNL     1      -3.923  -0.409   3.356  0.00  0.00    +0.380 N 
ATOM     22  H   UNL     1      -3.184  -0.015   3.918  0.00  0.00    -0.090 HD
ATOM     23  H   UNL     1      -4.643   0.283   3.214  0.00  0.00    -0.090 HD
ATOM     24  H   UNL     1      -4.314  -1.210   3.828  0.00  0.00    -0.090 HD
ENDBRANCH  18  21
ENDBRANCH   6  14
BRANCH  11  25
ATOM     25  C   UNL     1       5.444   6.789   0.431  0.00  0.00    +0.108 C 
ATOM     26  N   UNL     1       6.191   7.640   0.528  0.00  0.00    -0.190 NA
ENDBRANCH  11  25
TORSDOF 3
