REMARK  Name = CHEMBL218557
REMARK  9 active torsions:
REMARK  status: ('A' for Active; 'I' for Inactive)
REMARK    1  A    between atoms: C_1  and  C_2
REMARK    2  A    between atoms: C_2  and  C_3
REMARK    3  A    between atoms: C_3  and  N_4
REMARK    4  A    between atoms: C_8  and  N_29
REMARK    5  A    between atoms: N_23  and  C_28
REMARK    6  A    between atoms: C_30  and  O_32
REMARK    7  A    between atoms: O_32  and  C_33
REMARK    8  A    between atoms: C_36  and  O_39
REMARK    9  A    between atoms: O_39  and  C_40
REMARK                            x       y       z     vdW  Elec       q    Type
REMARK                         _______ _______ _______ _____ _____    ______ ____
ROOT
ATOM      1  N   UNL     1       0.752  -1.997   1.184  0.00  0.00    -0.340 N 
ATOM      2  C   UNL     1      -0.155  -2.793   1.839  0.00  0.00    +0.050 A 
ATOM      3  C   UNL     1      -1.260  -2.464   2.622  0.00  0.00    +0.028 A 
ATOM      4  C   UNL     1      -1.992  -3.511   3.155  0.00  0.00    +0.025 A 
ATOM      5  C   UNL     1      -1.655  -4.839   2.931  0.00  0.00    +0.037 A 
ATOM      6  C   UNL     1      -0.556  -5.190   2.153  0.00  0.00    +0.034 A 
ATOM      7  C   UNL     1       0.189  -4.144   1.610  0.00  0.00    +0.010 A 
ATOM      8  C   UNL     1       1.382  -4.136   0.760  0.00  0.00    +0.013 A 
ATOM      9  C   UNL     1       1.685  -2.778   0.525  0.00  0.00    +0.054 A 
ATOM     10  C   UNL     1       2.771  -2.437  -0.278  0.00  0.00    -0.014 A 
ATOM     11  C   UNL     1       3.570  -3.445  -0.808  0.00  0.00    +0.003 A 
ATOM     12  C   UNL     1       3.263  -4.800  -0.595  0.00  0.00    +0.050 A 
ATOM     13  C   UNL     1       2.167  -5.132   0.201  0.00  0.00    -0.008 A 
ATOM     14  C   UNL     1       2.109  -6.639   0.243  0.00  0.00    +0.141 C 
ATOM     15  N   UNL     1       3.241  -7.113  -0.563  0.00  0.00    -0.307 N 
ATOM     16  C   UNL     1       3.896  -6.047  -1.052  0.00  0.00    +0.245 C 
ATOM     17  O   UNL     1       4.881  -6.104  -1.764  0.00  0.00    -0.270 OA
ATOM     18  C   UNL     1       4.777  -3.034  -1.559  0.00  0.00    +0.024 A 
ATOM     19  C   UNL     1       5.614  -3.721  -2.365  0.00  0.00    +0.116 A 
ATOM     20  N   UNL     1       6.548  -2.850  -2.811  0.00  0.00    -0.274 N 
ATOM     21  N   UNL     1       6.277  -1.588  -2.256  0.00  0.00    -0.176 NA
ATOM     22  C   UNL     1       5.232  -1.687  -1.502  0.00  0.00    +0.071 A 
ATOM     23  C   UNL     1       4.529  -0.659  -0.652  0.00  0.00    +0.062 C 
ATOM     24  C   UNL     1       3.041  -0.989  -0.582  0.00  0.00    +0.044 C 
ATOM     25  C   UNL     1       7.653  -3.168  -3.719  0.00  0.00    +0.172 C 
ATOM     26  H   UNL     1       3.470  -8.042  -0.725  0.00  0.00    +0.149 HD
ENDROOT
BRANCH   5  27
ATOM     27  N   UNL     1      -2.440  -5.850   3.501  0.00  0.00    -0.251 N 
ATOM     28  C   UNL     1      -1.865  -6.996   3.917  0.00  0.00    +0.410 C 
ATOM     29  O   UNL     1      -0.656  -7.115   3.886  0.00  0.00    -0.226 OA
ATOM     30  H   UNL     1      -3.397  -5.725   3.597  0.00  0.00    +0.158 HD
BRANCH  28  31
ATOM     31  O   UNL     1      -2.631  -8.009   4.366  0.00  0.00    -0.411 OA
BRANCH  31  32
ATOM     32  C   UNL     1      -2.018  -9.183   4.677  0.00  0.00    +0.133 A 
ATOM     33  C   UNL     1      -1.290  -9.294   5.852  0.00  0.00    +0.050 A 
ATOM     34  C   UNL     1      -0.667 -10.486   6.168  0.00  0.00    +0.049 A 
ATOM     35  C   UNL     1      -0.772 -11.572   5.311  0.00  0.00    +0.120 A 
ATOM     36  C   UNL     1      -1.502 -11.460   4.137  0.00  0.00    +0.049 A 
ATOM     37  C   UNL     1      -2.128 -10.270   3.823  0.00  0.00    +0.050 A 
BRANCH  35  38
ATOM     38  O   UNL     1      -0.159 -12.745   5.623  0.00  0.00    -0.495 OA
ATOM     39  C   UNL     1      -0.309 -13.821   4.695  0.00  0.00    +0.277 C 
ENDBRANCH  35  38
ENDBRANCH  31  32
ENDBRANCH  28  31
ENDBRANCH   5  27
BRANCH   1  40
ATOM     40  C   UNL     1       0.731  -0.532   1.178  0.00  0.00    +0.122 C 
BRANCH  40  42
ATOM     41  C   UNL     1       1.663   1.526   2.246  0.00  0.00    +0.005 C 
ATOM     42  C   UNL     1       1.685  -0.004   2.252  0.00  0.00    +0.018 C 
ENDBRANCH  40  42
ENDBRANCH   1  40
TORSDOF 6
