REMARK  Name = CHEMBL258014
REMARK  8 active torsions:
REMARK  status: ('A' for Active; 'I' for Inactive)
REMARK    1  A    between atoms: C_1  and  C_2
REMARK    2  A    between atoms: C_2  and  C_3
REMARK    3  A    between atoms: C_3  and  N_4
REMARK    4  A    between atoms: C_8  and  C_29
REMARK    5  A    between atoms: N_23  and  C_28
REMARK    6  A    between atoms: C_29  and  C_33
REMARK    7  A    between atoms: N_30  and  O_31
REMARK    8  A    between atoms: O_31  and  C_32
REMARK                            x       y       z     vdW  Elec       q    Type
REMARK                         _______ _______ _______ _____ _____    ______ ____
ROOT
ATOM      1  N   UNL     1       0.738  -1.962  -1.265  0.00  0.00    -0.340 N 
ATOM      2  C   UNL     1       1.769  -2.733  -0.798  0.00  0.00    +0.050 A 
ATOM      3  C   UNL     1       2.994  -2.373  -0.232  0.00  0.00    +0.027 A 
ATOM      4  C   UNL     1       3.836  -3.387   0.148  0.00  0.00    +0.012 A 
ATOM      5  C   UNL     1       3.503  -4.734  -0.018  0.00  0.00    -0.000 A 
ATOM      6  C   UNL     1       2.282  -5.119  -0.585  0.00  0.00    +0.020 A 
ATOM      7  C   UNL     1       1.424  -4.094  -0.970  0.00  0.00    +0.009 A 
ATOM      8  C   UNL     1       0.092  -4.115  -1.583  0.00  0.00    +0.013 A 
ATOM      9  C   UNL     1      -0.285  -2.764  -1.740  0.00  0.00    +0.054 A 
ATOM     10  C   UNL     1      -1.528  -2.449  -2.284  0.00  0.00    -0.014 A 
ATOM     11  C   UNL     1      -2.367  -3.475  -2.706  0.00  0.00    +0.003 A 
ATOM     12  C   UNL     1      -2.007  -4.823  -2.535  0.00  0.00    +0.050 A 
ATOM     13  C   UNL     1      -0.765  -5.129  -1.978  0.00  0.00    -0.008 A 
ATOM     14  C   UNL     1      -0.674  -6.634  -1.938  0.00  0.00    +0.141 C 
ATOM     15  N   UNL     1      -1.928  -7.134  -2.514  0.00  0.00    -0.307 N 
ATOM     16  C   UNL     1      -2.697  -6.084  -2.847  0.00  0.00    +0.245 C 
ATOM     17  O   UNL     1      -3.802  -6.164  -3.348  0.00  0.00    -0.270 OA
ATOM     18  C   UNL     1      -3.626  -3.090  -3.381  0.00  0.00    +0.024 A 
ATOM     19  C   UNL     1      -4.730  -3.797  -3.699  0.00  0.00    +0.116 A 
ATOM     20  N   UNL     1      -5.598  -2.947  -4.293  0.00  0.00    -0.274 N 
ATOM     21  N   UNL     1      -5.003  -1.675  -4.346  0.00  0.00    -0.176 NA
ATOM     22  C   UNL     1      -3.827  -1.750  -3.814  0.00  0.00    +0.071 A 
ATOM     23  C   UNL     1      -2.757  -0.703  -3.637  0.00  0.00    +0.062 C 
ATOM     24  C   UNL     1      -1.949  -1.009  -2.378  0.00  0.00    +0.044 C 
ATOM     25  C   UNL     1      -6.930  -3.292  -4.796  0.00  0.00    +0.172 C 
ATOM     26  H   UNL     1      -2.167  -8.068  -2.624  0.00  0.00    +0.149 HD
ENDROOT
BRANCH   5  27
ATOM     27  C   UNL     1       4.458  -5.772   0.414  0.00  0.00    +0.084 C 
ATOM     28  N   UNL     1       4.164  -7.023   0.267  0.00  0.00    -0.090 NA
ATOM     29  C   UNL     1       5.777  -5.375   1.025  0.00  0.00    +0.069 C 
BRANCH  28  30
ATOM     30  O   UNL     1       5.081  -8.020   0.681  0.00  0.00    -0.397 OA
ATOM     31  C   UNL     1       4.626  -9.356   0.459  0.00  0.00    +0.313 C 
ENDBRANCH  28  30
ENDBRANCH   5  27
BRANCH   1  32
ATOM     32  C   UNL     1       0.718  -0.497  -1.257  0.00  0.00    +0.122 C 
BRANCH  32  34
ATOM     33  C   UNL     1       1.147   1.556  -2.614  0.00  0.00    +0.005 C 
ATOM     34  C   UNL     1       1.167   0.026  -2.622  0.00  0.00    +0.018 C 
ENDBRANCH  32  34
ENDBRANCH   1  32
TORSDOF 4
