REMARK  Name = CHEMBL381817
REMARK  3 active torsions:
REMARK  status: ('A' for Active; 'I' for Inactive)
REMARK    1  A    between atoms: C_6  and  N_7
REMARK    2  A    between atoms: C_10  and  N_12
REMARK    3  A    between atoms: C_17  and  C_19
REMARK                            x       y       z     vdW  Elec       q    Type
REMARK                         _______ _______ _______ _____ _____    ______ ____
ROOT
ATOM      1  C   UNL     1      -0.016   1.387   0.010  0.00  0.00    +0.087 A 
ATOM      2  C   UNL     1       1.200   2.063  -0.002  0.00  0.00    +0.129 A 
ATOM      3  N   UNL     1       2.330   1.359  -0.023  0.00  0.00    -0.220 NA
ATOM      4  C   UNL     1       2.306   0.042  -0.033  0.00  0.00    +0.225 A 
ATOM      5  N   UNL     1       1.176  -0.634  -0.023  0.00  0.00    -0.221 NA
ATOM      6  C   UNL     1       0.003  -0.004  -0.001  0.00  0.00    +0.126 A 
ATOM      7  N   UNL     1       1.234   3.451   0.008  0.00  0.00    -0.279 N 
ATOM      8  C   UNL     1       2.445   4.112   0.105  0.00  0.00    +0.165 A 
ATOM      9  N   UNL     1       3.659   3.595   0.102  0.00  0.00    -0.232 NA
ATOM     10  C   UNL     1       4.725   4.351   0.201  0.00  0.00    +0.139 A 
ATOM     11  C   UNL     1       4.503   5.716   0.309  0.00  0.00    +0.110 A 
ATOM     12  S   UNL     1       2.719   5.766   0.246  0.00  0.00    -0.042 S 
ATOM     13  H   UNL     1       0.409   3.957  -0.052  0.00  0.00    +0.155 HD
ENDROOT
BRANCH   6  14
ATOM     14  N   UNL     1      -1.182  -0.724   0.010  0.00  0.00    -0.317 N 
ATOM     15  C   UNL     1      -1.295  -2.187   0.110  0.00  0.00    +0.105 C 
ATOM     16  C   UNL     1      -2.800  -2.531   0.112  0.00  0.00    +0.004 C 
ATOM     17  C   UNL     1      -3.458  -1.207   0.583  0.00  0.00    -0.056 C 
ATOM     18  C   UNL     1      -2.537  -0.149  -0.071  0.00  0.00    +0.090 C 
BRANCH  17  19
ATOM     19  N   UNL     1      -4.833  -1.095   0.078  0.00  0.00    +0.381 N 
ATOM     20  H   UNL     1      -5.388  -1.855   0.441  0.00  0.00    -0.090 HD
ATOM     21  H   UNL     1      -5.231  -0.217   0.377  0.00  0.00    -0.090 HD
ATOM     22  H   UNL     1      -4.826  -1.135  -0.930  0.00  0.00    -0.090 HD
ENDBRANCH  17  19
ENDBRANCH   6  14
BRANCH  11  23
ATOM     23  C   UNL     1       5.444   6.789   0.431  0.00  0.00    +0.108 C 
ATOM     24  N   UNL     1       6.191   7.640   0.528  0.00  0.00    -0.190 NA
ENDBRANCH  11  23
TORSDOF 3
