REMARK  Name = CHEMBL398460
REMARK  5 active torsions:
REMARK  status: ('A' for Active; 'I' for Inactive)
REMARK    1  A    between atoms: C_1  and  N_2
REMARK    2  A    between atoms: C_4  and  C_14
REMARK    3  A    between atoms: C_9  and  O_12
REMARK    4  A    between atoms: O_12  and  C_13
REMARK    5  A    between atoms: C_16  and  C_21
REMARK                            x       y       z     vdW  Elec       q    Type
REMARK                         _______ _______ _______ _____ _____    ______ ____
ROOT
ATOM      1  C   UNL     1      -0.558   1.437  -0.032  0.00  0.00    +0.149 C 
ATOM      2  N   UNL     1      -0.285  -0.002  -0.034  0.00  0.00    -0.349 N 
ATOM      3  C   UNL     1      -0.331  -0.784  -1.124  0.00  0.00    +0.094 A 
ATOM      4  C   UNL     1      -0.020  -2.090  -0.772  0.00  0.00    +0.002 A 
ATOM      5  C   UNL     1       0.237  -2.070   0.683  0.00  0.00    +0.024 A 
ATOM      6  C   UNL     1       0.061  -0.737   1.085  0.00  0.00    +0.051 A 
ATOM      7  C   UNL     1       0.241  -0.397   2.421  0.00  0.00    +0.030 A 
ATOM      8  C   UNL     1       0.594  -1.365   3.338  0.00  0.00    +0.049 A 
ATOM      9  C   UNL     1       0.773  -2.685   2.940  0.00  0.00    +0.135 A 
ATOM     10  C   UNL     1       0.588  -3.042   1.615  0.00  0.00    +0.069 A 
ATOM     11 BR   UNL     1       0.832  -4.836   1.071  0.00  0.00    -0.046 Br
ENDROOT
BRANCH   4  12
ATOM     12  C   UNL     1       0.039  -3.205  -1.625  0.00  0.00    +0.025 C 
ATOM     13  C   UNL     1       0.541  -3.067  -2.920  0.00  0.00    +0.072 C 
ATOM     14  C   UNL     1       0.543  -4.061  -4.010  0.00  0.00    +0.115 C 
ATOM     15  N   UNL     1       1.126  -3.460  -5.034  0.00  0.00    -0.144 NA
ATOM     16  N   UNL     1       1.477  -2.265  -4.741  0.00  0.00    -0.105 NA
ATOM     17  C   UNL     1       1.168  -1.932  -3.506  0.00  0.00    +0.298 C 
ATOM     18  O   UNL     1       1.404  -0.738  -2.905  0.00  0.00    -0.264 OA
BRANCH  14  19
ATOM     19  C   UNL     1       0.009  -5.435  -3.967  0.00  0.00    +0.080 A 
ATOM     20  C   UNL     1      -0.013  -6.415  -4.952  0.00  0.00    +0.154 A 
ATOM     21  N   UNL     1      -0.570  -7.543  -4.582  0.00  0.00    -0.149 NA
ATOM     22  N   UNL     1      -1.051  -7.717  -3.403  0.00  0.00    -0.110 NA
ATOM     23  S   UNL     1      -0.785  -6.315  -2.633  0.00  0.00    +0.038 S 
ENDBRANCH  14  19
ENDBRANCH   4  12
BRANCH   9  24
ATOM     24  O   UNL     1       1.121  -3.628   3.855  0.00  0.00    -0.494 OA
ATOM     25  C   UNL     1       1.287  -3.192   5.205  0.00  0.00    +0.277 C 
ENDBRANCH   9  24
TORSDOF 3
