REMARK  Name = CHEMBL504075
REMARK  6 active torsions:
REMARK  status: ('A' for Active; 'I' for Inactive)
REMARK    1  A    between atoms: C_1  and  C_2
REMARK    2  A    between atoms: C_6  and  C_8
REMARK    3  A    between atoms: N_10  and  C_11
REMARK    4  A    between atoms: C_15  and  C_17
REMARK    5  A    between atoms: C_17  and  C_19
REMARK    6  A    between atoms: C_17  and  N_20
REMARK                            x       y       z     vdW  Elec       q    Type
REMARK                         _______ _______ _______ _____ _____    ______ ____
ROOT
ATOM      1  C   UNL     1      -0.009  -4.855   3.674  0.00  0.00    +0.034 A 
ATOM      2  C   UNL     1      -0.114  -4.127   4.852  0.00  0.00    +0.023 A 
ATOM      3  C   UNL     1      -0.189  -4.784   6.064  0.00  0.00    +0.002 A 
ATOM      4  C   UNL     1      -0.159  -6.166   6.106  0.00  0.00    +0.005 A 
ATOM      5  C   UNL     1      -0.054  -6.894   4.936  0.00  0.00    -0.026 A 
ATOM      6  C   UNL     1       0.015  -6.243   3.719  0.00  0.00    +0.028 A 
ENDROOT
BRANCH   1   9
ATOM      7  C   UNL     1      -0.516  -4.728   1.354  0.00  0.00    +0.248 C 
ATOM      8  O   UNL     1      -1.036  -5.825   1.418  0.00  0.00    -0.270 OA
ATOM      9  N   UNL     1       0.068  -4.193   2.445  0.00  0.00    -0.281 N 
ATOM     10  H   UNL     1       0.541  -3.349   2.377  0.00  0.00    +0.155 HD
BRANCH   7  16
ATOM     11  C   UNL     1      -1.780  -4.423  -3.464  0.00  0.00    +0.044 C 
ATOM     12  C   UNL     1      -1.130  -3.829  -2.241  0.00  0.00    -0.050 A 
ATOM     13  C   UNL     1      -0.538  -2.580  -2.311  0.00  0.00    +0.003 A 
ATOM     14  C   UNL     1       0.061  -2.028  -1.193  0.00  0.00    +0.001 A 
ATOM     15  C   UNL     1       0.072  -2.720   0.001  0.00  0.00    +0.013 A 
ATOM     16  C   UNL     1      -0.524  -3.980   0.079  0.00  0.00    +0.037 A 
ATOM     17  C   UNL     1      -1.131  -4.529  -1.052  0.00  0.00    +0.016 A 
ENDBRANCH   7  16
ENDBRANCH   1   9
BRANCH   5  18
ATOM     18  C   UNL     1      -0.021  -8.400   4.986  0.00  0.00    +0.099 C 
ATOM     19  C   UNL     1      -1.445  -8.936   5.148  0.00  0.00    +0.033 C 
BRANCH  18  20
ATOM     20  N   UNL     1       0.796  -8.832   6.123  0.00  0.00    -0.321 N 
ATOM     21  C   UNL     1       1.407 -10.081   6.106  0.00  0.00    +0.139 A 
ATOM     22  C   UNL     1       1.248 -10.920   5.005  0.00  0.00    +0.154 A 
ATOM     23  N   UNL     1       1.830 -12.104   4.991  0.00  0.00    -0.257 NA
ATOM     24  C   UNL     1       2.563 -12.495   6.020  0.00  0.00    +0.151 A 
ATOM     25  C   UNL     1       2.722 -11.665   7.115  0.00  0.00    +0.149 A 
ATOM     26  N   UNL     1       2.146 -10.474   7.134  0.00  0.00    -0.218 NA
ATOM     27 CL   UNL     1       3.685 -12.184   8.463  0.00  0.00    -0.060 Cl
ATOM     28  H   UNL     1       0.910  -8.247   6.889  0.00  0.00    +0.148 HD
ENDBRANCH  18  20
ENDBRANCH   5  18
TORSDOF 4
