REMARK  Name = CHEMBL378024
REMARK  8 active torsions:
REMARK  status: ('A' for Active; 'I' for Inactive)
REMARK    1  A    between atoms: C_1  and  C_2
REMARK    2  A    between atoms: C_2  and  C_3
REMARK    3  A    between atoms: C_2  and  C_4
REMARK    4  A    between atoms: C_2  and  N_5
REMARK    5  A    between atoms: N_8  and  C_9
REMARK    6  A    between atoms: C_15  and  C_19
REMARK    7  A    between atoms: C_24  and  N_28
REMARK    8  A    between atoms: C_31  and  N_34
REMARK                            x       y       z     vdW  Elec       q    Type
REMARK                         _______ _______ _______ _____ _____    ______ ____
ROOT
ATOM      1  C   UNL     1       6.324  -1.146  -6.739  0.00  0.00    +0.160 A 
ATOM      2  N   UNL     1       5.192  -1.771  -6.954  0.00  0.00    -0.226 NA
ATOM      3  C   UNL     1       5.238  -2.397  -8.156  0.00  0.00    +0.090 A 
ATOM      4  C   UNL     1       4.323  -3.188  -8.860  0.00  0.00    +0.032 A 
ATOM      5  C   UNL     1       4.660  -3.695 -10.082  0.00  0.00    +0.025 A 
ATOM      6  C   UNL     1       5.910  -3.433 -10.640  0.00  0.00    +0.032 A 
ATOM      7  C   UNL     1       6.830  -2.652  -9.958  0.00  0.00    +0.051 A 
ATOM      8  C   UNL     1       6.500  -2.131  -8.716  0.00  0.00    +0.068 A 
ATOM      9  N   UNL     1       7.167  -1.334  -7.804  0.00  0.00    -0.337 N 
ATOM     10  H   UNL     1       8.063  -0.977  -7.899  0.00  0.00    +0.167 HD
ENDROOT
BRANCH   1  17
ATOM     11  C   UNL     1       3.905  -0.165  -2.859  0.00  0.00    +0.036 A 
ATOM     12  C   UNL     1       4.624   0.638  -1.974  0.00  0.00    +0.025 A 
ATOM     13  C   UNL     1       5.889   1.052  -2.277  0.00  0.00    +0.029 A 
ATOM     14  C   UNL     1       6.477   0.673  -3.482  0.00  0.00    +0.067 A 
ATOM     15  C   UNL     1       5.760  -0.136  -4.381  0.00  0.00    +0.032 A 
ATOM     16  C   UNL     1       4.469  -0.558  -4.057  0.00  0.00    +0.035 A 
ATOM     17  C   UNL     1       6.642  -0.354  -5.534  0.00  0.00    +0.135 A 
ATOM     18  N   UNL     1       7.766   0.285  -5.299  0.00  0.00    -0.170 NA
ATOM     19  N   UNL     1       7.700   0.922  -4.056  0.00  0.00    -0.276 N 
ATOM     20  H   UNL     1       8.407   1.457  -3.662  0.00  0.00    +0.189 HD
BRANCH  11  24
ATOM     21  N   UNL     1       0.515  -0.116  -1.604  0.00  0.00    -0.294 N 
ATOM     22  C   UNL     1       1.791   0.246  -1.843  0.00  0.00    +0.304 C 
ATOM     23  O   UNL     1       2.206   1.315  -1.441  0.00  0.00    -0.252 OA
ATOM     24  N   UNL     1       2.608  -0.578  -2.530  0.00  0.00    -0.269 N 
ATOM     25  H   UNL     1       0.184  -0.969  -1.925  0.00  0.00    +0.151 HD
ATOM     26  H   UNL     1       2.297  -1.458  -2.795  0.00  0.00    +0.156 HD
BRANCH  21  28
ATOM     27  C   UNL     1      -0.498   2.110  -1.604  0.00  0.00    +0.031 C 
ATOM     28  C   UNL     1      -0.372   0.780  -0.858  0.00  0.00    +0.028 C 
ATOM     29  C   UNL     1       0.209   1.030   0.535  0.00  0.00    +0.031 C 
ATOM     30  C   UNL     1      -1.753   0.136  -0.726  0.00  0.00    +0.031 C 
ENDBRANCH  21  28
ENDBRANCH  11  24
ENDBRANCH   1  17
BRANCH   6  31
ATOM     31  N   UNL     1       6.238  -3.960 -11.892  0.00  0.00    -0.330 N 
ATOM     32  C   UNL     1       7.593  -3.804 -12.439  0.00  0.00    +0.103 C 
ATOM     33  C   UNL     1       8.132  -5.186 -12.823  0.00  0.00    +0.004 C 
ATOM     34  C   UNL     1       7.145  -5.868 -13.773  0.00  0.00    -0.066 C 
ATOM     35  C   UNL     1       5.800  -6.053 -13.068  0.00  0.00    +0.004 C 
ATOM     36  C   UNL     1       5.236  -4.686 -12.684  0.00  0.00    +0.103 C 
BRANCH  34  37
ATOM     37  N   UNL     1       7.674  -7.179 -14.170  0.00  0.00    +0.382 N 
ATOM     38  C   UNL     1       8.968  -7.001 -14.840  0.00  0.00    -0.078 C 
ATOM     39  C   UNL     1       9.562  -8.369 -15.182  0.00  0.00    -0.019 C 
ATOM     40  C   UNL     1       8.603  -9.117 -16.113  0.00  0.00    -0.004 C 
ATOM     41  C   UNL     1       7.235  -9.232 -15.434  0.00  0.00    -0.019 C 
ATOM     42  C   UNL     1       6.727  -7.832 -15.082  0.00  0.00    -0.078 C 
ATOM     43  H   UNL     1       7.799  -7.753 -13.349  0.00  0.00    -0.081 HD
ENDBRANCH  34  37
ENDBRANCH   6  31
TORSDOF 5
