REMARK  Name = CHEMBL225334
REMARK  8 active torsions:
REMARK  status: ('A' for Active; 'I' for Inactive)
REMARK    1  A    between atoms: C_1  and  N_2
REMARK    2  A    between atoms: N_5  and  C_9
REMARK    3  A    between atoms: C_9  and  C_10
REMARK    4  A    between atoms: C_22  and  C_23
REMARK    5  A    between atoms: C_25  and  C_28
REMARK    6  A    between atoms: C_29  and  C_30
REMARK    7  A    between atoms: C_30  and  O_31
REMARK    8  A    between atoms: O_31  and  C_32
REMARK                            x       y       z     vdW  Elec       q    Type
REMARK                         _______ _______ _______ _____ _____    ______ ____
ROOT
ATOM      1  C   UNL     1       0.381  -4.813  -0.166  0.00  0.00    -0.030 A 
ATOM      2  C   UNL     1      -0.159  -5.176  -1.387  0.00  0.00    +0.006 A 
ATOM      3  C   UNL     1       0.620  -5.815  -2.329  0.00  0.00    +0.011 A 
ATOM      4  C   UNL     1       1.958  -6.097  -2.051  0.00  0.00    +0.006 A 
ATOM      5  C   UNL     1       2.494  -5.729  -0.820  0.00  0.00    -0.033 A 
ATOM      6  C   UNL     1       1.708  -5.085   0.114  0.00  0.00    +0.009 A 
ATOM      7  C   UNL     1       3.941  -6.156  -0.801  0.00  0.00    +0.075 C 
ATOM      8  C   UNL     1       4.203  -6.809  -2.135  0.00  0.00    +0.010 A 
ATOM      9  C   UNL     1       3.005  -6.764  -2.867  0.00  0.00    +0.097 A 
ATOM     10  N   UNL     1       3.221  -7.333  -4.038  0.00  0.00    -0.173 NA
ATOM     11  H   UNL     1       4.984  -8.206  -4.832  0.00  0.00    +0.189 HD
ATOM     12  N   UNL     1       4.555  -7.756  -4.087  0.00  0.00    -0.276 N 
ATOM     13  C   UNL     1       5.145  -7.424  -2.903  0.00  0.00    +0.070 A 
ENDROOT
BRANCH  13  14
ATOM     14  C   UNL     1       6.552  -7.683  -2.523  0.00  0.00    +0.008 A 
ATOM     15  C   UNL     1       7.586  -7.419  -3.410  0.00  0.00    +0.034 A 
ATOM     16  C   UNL     1       8.871  -7.674  -3.015  0.00  0.00    +0.063 A 
ATOM     17  S   UNL     1       8.640  -8.301  -1.360  0.00  0.00    -0.088 S 
ATOM     18  C   UNL     1       6.861  -8.184  -1.285  0.00  0.00    +0.056 A 
BRANCH  16  19
ATOM     19  C   UNL     1      10.089  -7.487  -3.744  0.00  0.00    -0.056 C 
ATOM     20  C   UNL     1      11.088  -7.334  -4.342  0.00  0.00    -0.056 C 
BRANCH  20  21
ATOM     21  C   UNL     1      12.340  -7.141  -5.091  0.00  0.00    +0.318 C 
BRANCH  21  22
ATOM     22  O   UNL     1      13.447  -7.544  -4.281  0.00  0.00    -0.480 OA
BRANCH  22  23
ATOM     23  C   UNL     1      14.685  -7.429  -4.828  0.00  0.00    +0.122 A 
ATOM     24  C   UNL     1      14.834  -6.934  -6.116  0.00  0.00    +0.046 A 
ATOM     25  C   UNL     1      16.094  -6.818  -6.669  0.00  0.00    +0.004 A 
ATOM     26  C   UNL     1      17.207  -7.195  -5.941  0.00  0.00    +0.000 A 
ATOM     27  C   UNL     1      17.062  -7.689  -4.658  0.00  0.00    +0.004 A 
ATOM     28  C   UNL     1      15.805  -7.802  -4.098  0.00  0.00    +0.046 A 
ENDBRANCH  22  23
ENDBRANCH  21  22
ENDBRANCH  20  21
ENDBRANCH  16  19
ENDBRANCH  13  14
BRANCH   1  29
ATOM     29  C   UNL     1      -0.475  -4.114   0.858  0.00  0.00    +0.142 C 
BRANCH  29  34
ATOM     30  C   UNL     1      -0.018   1.465   0.010  0.00  0.00    -0.095 C 
ATOM     31  N   UNL     1       0.002  -0.004   0.002  0.00  0.00    +0.385 N 
ATOM     32  C   UNL     1      -1.377  -0.516   0.027  0.00  0.00    -0.059 C 
ATOM     33  C   UNL     1      -1.349  -2.023  -0.236  0.00  0.00    +0.089 C 
ATOM     34  N   UNL     1      -0.390  -2.665   0.660  0.00  0.00    -0.300 N 
ATOM     35  C   UNL     1       0.562  -1.983   1.307  0.00  0.00    +0.199 C 
ATOM     36  O   UNL     1       1.335  -2.592   2.015  0.00  0.00    -0.278 OA
ATOM     37  C   UNL     1       0.712  -0.493   1.191  0.00  0.00    +0.018 C 
ATOM     38  H   UNL     1       0.471  -0.331  -0.830  0.00  0.00    -0.081 HD
ENDBRANCH  29  34
ENDBRANCH   1  29
TORSDOF 7
