REMARK  Name = CHEMBL270556
REMARK  7 active torsions:
REMARK  status: ('A' for Active; 'I' for Inactive)
REMARK    1  A    between atoms: C_1  and  O_2
REMARK    2  A    between atoms: O_2  and  C_3
REMARK    3  A    between atoms: C_8  and  O_9
REMARK    4  A    between atoms: O_9  and  C_10
REMARK    5  A    between atoms: C_14  and  O_15
REMARK    6  A    between atoms: O_15  and  C_16
REMARK    7  A    between atoms: C_25  and  C_26
REMARK                            x       y       z     vdW  Elec       q    Type
REMARK                         _______ _______ _______ _____ _____    ______ ____
ROOT
ATOM      1  O   UNL     1       2.400   1.561  -4.185  0.00  0.00    -0.437 OA
ENDROOT
BRANCH   1  11
ATOM      2  C   UNL     1       0.682  -0.728  -1.093  0.00  0.00    +0.162 A 
ATOM      3  C   UNL     1       1.225   0.052  -2.074  0.00  0.00    +0.064 A 
ATOM      4  C   UNL     1       1.863  -0.551  -3.166  0.00  0.00    +0.066 A 
ATOM      5  C   UNL     1       1.941  -1.964  -3.246  0.00  0.00    +0.082 A 
ATOM      6  C   UNL     1       1.377  -2.744  -2.228  0.00  0.00    +0.078 A 
ATOM      7  C   UNL     1       0.760  -2.126  -1.163  0.00  0.00    +0.164 A 
ATOM      8  N   UNL     1       2.557  -2.517  -4.302  0.00  0.00    -0.235 NA
ATOM      9  C   UNL     1       3.077  -1.760  -5.238  0.00  0.00    +0.225 A 
ATOM     10  N   UNL     1       3.028  -0.437  -5.204  0.00  0.00    -0.201 NA
ATOM     11  C   UNL     1       2.442   0.209  -4.207  0.00  0.00    +0.231 A 
BRANCH   2  13
ATOM     12  C   UNL     1       0.016   1.287  -0.019  0.00  0.00    +0.277 C 
ATOM     13  O   UNL     1       0.063  -0.141  -0.034  0.00  0.00    -0.491 OA
ENDBRANCH   2  13
BRANCH   7  14
ATOM     14  O   UNL     1       0.216  -2.880  -0.172  0.00  0.00    -0.491 OA
ATOM     15  C   UNL     1       0.328  -4.299  -0.301  0.00  0.00    +0.277 C 
ENDBRANCH   7  14
ENDBRANCH   1  11
BRANCH   1  16
ATOM     16  C   UNL     1       3.063   2.236  -5.160  0.00  0.00    +0.131 A 
ATOM     17  C   UNL     1       2.523   2.295  -6.448  0.00  0.00    +0.047 A 
ATOM     18  C   UNL     1       3.166   2.964  -7.445  0.00  0.00    +0.013 A 
ATOM     19  C   UNL     1       4.385   3.604  -7.181  0.00  0.00    -0.006 A 
ATOM     20  C   UNL     1       4.936   3.546  -5.878  0.00  0.00    -0.014 A 
ATOM     21  C   UNL     1       4.247   2.853  -4.868  0.00  0.00    +0.054 A 
ATOM     22  C   UNL     1       6.158   4.189  -5.613  0.00  0.00    +0.008 A 
ATOM     23  C   UNL     1       6.806   4.861  -6.606  0.00  0.00    +0.001 A 
ATOM     24  C   UNL     1       6.282   4.928  -7.890  0.00  0.00    +0.013 A 
ATOM     25  C   UNL     1       5.079   4.309  -8.196  0.00  0.00    +0.044 A 
BRANCH  25  26
ATOM     26  C   UNL     1       4.528   4.384  -9.562  0.00  0.00    +0.242 C 
ATOM     27  O   UNL     1       3.423   3.934  -9.797  0.00  0.00    -0.270 OA
ATOM     28  N   UNL     1       5.249   4.951 -10.549  0.00  0.00    -0.325 N 
ATOM     29  H   UNL     1       6.130   5.310 -10.361  0.00  0.00    +0.145 HD
ATOM     30  H   UNL     1       4.886   5.000 -11.447  0.00  0.00    +0.145 HD
ENDBRANCH  25  26
ENDBRANCH   1  16
TORSDOF 5
