REMARK  Name = CHEMBL360118
REMARK  11 active torsions:
REMARK  status: ('A' for Active; 'I' for Inactive)
REMARK    1  A    between atoms: C_1  and  C_2
REMARK    2  A    between atoms: C_5  and  N_9
REMARK    3  A    between atoms: C_7  and  O_8
REMARK    4  A    between atoms: C_12  and  C_32
REMARK    5  A    between atoms: C_13  and  N_19
REMARK    6  A    between atoms: N_22  and  C_23
REMARK    7  A    between atoms: C_23  and  C_24
REMARK    8  A    between atoms: C_24  and  C_25
REMARK    9  A    between atoms: C_25  and  N_26
REMARK   10  A    between atoms: C_32  and  C_33
REMARK   11  A    between atoms: C_32  and  C_34
REMARK                            x       y       z     vdW  Elec       q    Type
REMARK                         _______ _______ _______ _____ _____    ______ ____
ROOT
ATOM      1  N   UNL     1      -0.183  -4.165  -0.013  0.00  0.00    -0.298 N 
ATOM      2  C   UNL     1      -0.245  -4.849  -1.212  0.00  0.00    +0.151 A 
ATOM      3  C   UNL     1      -0.227  -6.262  -1.232  0.00  0.00    +0.111 A 
ATOM      4  C   UNL     1      -0.155  -7.230  -0.249  0.00  0.00    +0.007 A 
ATOM      5  C   UNL     1      -0.176  -8.471  -0.896  0.00  0.00    +0.059 A 
ATOM      6  C   UNL     1      -0.259  -8.242  -2.238  0.00  0.00    +0.136 A 
ATOM      7  N   UNL     1      -0.291  -6.906  -2.453  0.00  0.00    -0.233 N 
ATOM      8  N   UNL     1      -0.370  -6.124  -3.614  0.00  0.00    -0.155 NA
ATOM      9  C   UNL     1      -0.382  -4.822  -3.526  0.00  0.00    +0.245 A 
ATOM     10  N   UNL     1      -0.328  -4.188  -2.356  0.00  0.00    -0.217 NA
ATOM     11  H   UNL     1      -0.220  -4.652   0.825  0.00  0.00    +0.154 HD
ENDROOT
BRANCH   1  16
ATOM     12  C   UNL     1       0.285   1.490  -0.001  0.00  0.00    +0.047 C 
ATOM     13  C   UNL     1       0.161  -0.011  -0.003  0.00  0.00    -0.009 A 
ATOM     14  C   UNL     1      -0.214  -0.671  -1.158  0.00  0.00    +0.009 A 
ATOM     15  C   UNL     1      -0.328  -2.048  -1.164  0.00  0.00    +0.024 A 
ATOM     16  C   UNL     1      -0.066  -2.773  -0.007  0.00  0.00    +0.036 A 
ATOM     17  C   UNL     1       0.311  -2.111   1.153  0.00  0.00    +0.069 A 
ATOM     18  C   UNL     1       0.430  -0.730   1.154  0.00  0.00    +0.122 A 
BRANCH  18  19
ATOM     19  O   UNL     1       0.804  -0.080   2.287  0.00  0.00    -0.506 OA
ATOM     20  H   UNL     1       0.065   0.177   2.855  0.00  0.00    +0.292 HD
ENDBRANCH  18  19
ENDBRANCH   1  16
BRANCH   5  21
ATOM     21  N   UNL     1      -0.121  -9.731  -0.273  0.00  0.00    -0.268 N 
ATOM     22  C   UNL     1      -0.150 -10.853  -1.018  0.00  0.00    +0.304 C 
ATOM     23  O   UNL     1      -0.224 -10.777  -2.230  0.00  0.00    -0.253 OA
ATOM     24  N   UNL     1      -0.098 -12.060  -0.421  0.00  0.00    -0.299 N 
ATOM     25  H   UNL     1      -0.062  -9.792   0.694  0.00  0.00    +0.156 HD
ATOM     26  H   UNL     1      -0.039 -12.121   0.545  0.00  0.00    +0.150 HD
BRANCH  24  27
ATOM     27  C   UNL     1      -0.129 -13.280  -1.232  0.00  0.00    +0.104 C 
BRANCH  27  28
ATOM     28  C   UNL     1      -0.057 -14.504  -0.315  0.00  0.00    +0.000 C 
BRANCH  28  29
ATOM     29  C   UNL     1      -0.090 -15.778  -1.162  0.00  0.00    -0.077 C 
BRANCH  29  30
ATOM     30  N   UNL     1      -0.021 -16.952  -0.282  0.00  0.00    +0.380 N 
ATOM     31  C   UNL     1       1.274 -16.968   0.409  0.00  0.00    -0.079 C 
ATOM     32  C   UNL     1       1.319 -18.144   1.387  0.00  0.00    -0.019 C 
ATOM     33  C   UNL     1       1.136 -19.452   0.613  0.00  0.00    -0.004 C 
ATOM     34  C   UNL     1      -0.183 -19.394  -0.163  0.00  0.00    -0.019 C 
ATOM     35  C   UNL     1      -0.173 -18.172  -1.084  0.00  0.00    -0.079 C 
ATOM     36  H   UNL     1      -0.763 -16.904   0.400  0.00  0.00    -0.082 HD
ENDBRANCH  29  30
ENDBRANCH  28  29
ENDBRANCH  27  28
ENDBRANCH  24  27
ENDBRANCH   5  21
BRANCH   4  37
ATOM     37  C   UNL     1      -0.069  -6.995   1.237  0.00  0.00    +0.017 C 
ATOM     38  C   UNL     1      -1.265  -7.652   1.928  0.00  0.00    +0.012 C 
ATOM     39  C   UNL     1       1.228  -7.603   1.775  0.00  0.00    +0.012 C 
ENDBRANCH   4  37
TORSDOF 8
