REMARK  Name = CHEMBL385178
REMARK  7 active torsions:
REMARK  status: ('A' for Active; 'I' for Inactive)
REMARK    1  A    between atoms: C_4  and  O_7
REMARK    2  A    between atoms: O_7  and  C_8
REMARK    3  A    between atoms: C_11  and  N_14
REMARK    4  A    between atoms: C_15  and  C_17
REMARK    5  A    between atoms: C_22  and  N_23
REMARK    6  A    between atoms: N_23  and  C_24
REMARK    7  A    between atoms: C_24  and  C_25
REMARK                            x       y       z     vdW  Elec       q    Type
REMARK                         _______ _______ _______ _____ _____    ______ ____
ROOT
ATOM      1  N   UNL     1       3.896  -6.151  -0.177  0.00  0.00    -0.281 N 
ATOM      2  C   UNL     1       5.088  -6.764  -0.044  0.00  0.00    +0.252 C 
ATOM      3  O   UNL     1       6.110  -6.105  -0.004  0.00  0.00    -0.270 OA
ATOM      4  H   UNL     1       3.087  -6.678  -0.272  0.00  0.00    +0.155 HD
ENDROOT
BRANCH   1   8
ATOM      5  C   UNL     1       3.682  -1.987  -0.177  0.00  0.00    +0.129 A 
ATOM      6  C   UNL     1       2.664  -2.734   0.399  0.00  0.00    +0.048 A 
ATOM      7  C   UNL     1       2.734  -4.113   0.399  0.00  0.00    +0.027 A 
ATOM      8  C   UNL     1       3.824  -4.753  -0.177  0.00  0.00    +0.034 A 
ATOM      9  C   UNL     1       4.842  -4.005  -0.754  0.00  0.00    +0.027 A 
ATOM     10  C   UNL     1       4.768  -2.626  -0.758  0.00  0.00    +0.048 A 
BRANCH   5  11
ATOM     11  O   UNL     1       3.612  -0.630  -0.177  0.00  0.00    -0.456 OA
BRANCH  11  15
ATOM     12  C   UNL     1       4.423   1.350   3.350  0.00  0.00    +0.000 A 
ATOM     13  C   UNL     1       4.383  -0.032   3.328  0.00  0.00    +0.004 A 
ATOM     14  C   UNL     1       4.112  -0.697   2.148  0.00  0.00    +0.046 A 
ATOM     15  C   UNL     1       3.879   0.022   0.985  0.00  0.00    +0.128 A 
ATOM     16  C   UNL     1       3.919   1.409   1.010  0.00  0.00    +0.046 A 
ATOM     17  C   UNL     1       4.191   2.070   2.193  0.00  0.00    +0.004 A 
ENDBRANCH  11  15
ENDBRANCH   5  11
ENDBRANCH   1   8
BRANCH   2  18
ATOM     18  C   UNL     1       5.155  -8.234   0.052  0.00  0.00    +0.077 A 
ATOM     19  C   UNL     1       4.003  -9.012  -0.115  0.00  0.00    +0.018 A 
ATOM     20  C   UNL     1       4.119 -10.387  -0.015  0.00  0.00    +0.021 A 
ATOM     21  C   UNL     1       5.356 -10.950   0.244  0.00  0.00    +0.113 A 
ATOM     22  N   UNL     1       6.429 -10.200   0.398  0.00  0.00    -0.240 NA
ATOM     23  C   UNL     1       6.377  -8.880   0.307  0.00  0.00    +0.131 A 
BRANCH  23  24
ATOM     24  N   UNL     1       7.529  -8.132   0.470  0.00  0.00    -0.324 N 
ATOM     25  H   UNL     1       7.480  -7.164   0.490  0.00  0.00    +0.148 HD
BRANCH  24  26
ATOM     26  C   UNL     1       8.823  -8.803   0.611  0.00  0.00    +0.138 C 
BRANCH  26  27
ATOM     27  C   UNL     1       9.909  -7.771   0.773  0.00  0.00    -0.028 A 
ATOM     28  C   UNL     1      10.562  -7.248  -0.332  0.00  0.00    +0.025 A 
ATOM     29  C   UNL     1      11.553  -6.303  -0.145  0.00  0.00    +0.111 A 
ATOM     30  N   UNL     1      11.879  -5.899   1.067  0.00  0.00    -0.263 NA
ATOM     31  C   UNL     1      11.279  -6.374   2.142  0.00  0.00    +0.111 A 
ATOM     32  C   UNL     1      10.275  -7.317   2.031  0.00  0.00    +0.025 A 
ENDBRANCH  26  27
ENDBRANCH  24  26
ENDBRANCH  23  24
ENDBRANCH   2  18
TORSDOF 7
