REMARK  Name = CHEMBL427267
REMARK  6 active torsions:
REMARK  status: ('A' for Active; 'I' for Inactive)
REMARK    1  A    between atoms: C_1  and  C_2
REMARK    2  A    between atoms: C_6  and  N_8
REMARK    3  A    between atoms: N_11  and  C_12
REMARK    4  A    between atoms: C_15  and  C_18
REMARK    5  A    between atoms: C_23  and  N_33
REMARK    6  A    between atoms: C_26  and  C_27
REMARK                            x       y       z     vdW  Elec       q    Type
REMARK                         _______ _______ _______ _____ _____    ______ ____
ROOT
ATOM      1  C   UNL     1      -0.491  -6.263   2.440  0.00  0.00    +0.035 A 
ATOM      2  C   UNL     1       0.046  -7.000   1.392  0.00  0.00    +0.024 A 
ATOM      3  C   UNL     1       0.097  -8.376   1.469  0.00  0.00    +0.010 A 
ATOM      4  C   UNL     1      -0.391  -9.027   2.602  0.00  0.00    -0.017 A 
ATOM      5  C   UNL     1      -0.929  -8.285   3.652  0.00  0.00    +0.010 A 
ATOM      6  C   UNL     1      -0.973  -6.909   3.571  0.00  0.00    +0.024 A 
ENDROOT
BRANCH   4   7
ATOM      7  C   UNL     1      -0.338 -10.506   2.688  0.00  0.00    +0.000 A 
ATOM      8  C   UNL     1      -1.467 -11.225   2.889  0.00  0.00    +0.055 A 
ATOM      9  S   UNL     1      -0.887 -12.911   2.915  0.00  0.00    -0.095 S 
ATOM     10  C   UNL     1       0.841 -12.615   2.658  0.00  0.00    +0.032 A 
ATOM     11  C   UNL     1       0.933 -11.213   2.551  0.00  0.00    +0.037 A 
ATOM     12  C   UNL     1       2.235 -10.692   2.334  0.00  0.00    +0.125 A 
ATOM     13  N   UNL     1       3.280 -11.487   2.235  0.00  0.00    -0.239 NA
ATOM     14  C   UNL     1       3.204 -12.804   2.329  0.00  0.00    +0.122 A 
ATOM     15  C   UNL     1       1.975 -13.417   2.553  0.00  0.00    +0.016 A 
BRANCH  15  16
ATOM     16  C   UNL     1       1.873 -14.892   2.660  0.00  0.00    +0.003 A 
ATOM     17  C   UNL     1       2.469 -15.717   1.700  0.00  0.00    +0.011 A 
ATOM     18  C   UNL     1       2.344 -17.088   1.845  0.00  0.00    +0.020 A 
ATOM     19  C   UNL     1       1.641 -17.593   2.924  0.00  0.00    +0.111 A 
ATOM     20  N   UNL     1       1.090 -16.790   3.813  0.00  0.00    -0.263 NA
ATOM     21  C   UNL     1       1.186 -15.480   3.721  0.00  0.00    +0.119 A 
ENDBRANCH  15  16
BRANCH  12  22
ATOM     22  N   UNL     1       2.409  -9.320   2.222  0.00  0.00    -0.343 N 
ATOM     23  H   UNL     1       1.792  -8.716   2.663  0.00  0.00    +0.144 HD
ATOM     24  H   UNL     1       3.149  -8.966   1.704  0.00  0.00    +0.144 HD
ENDBRANCH  12  22
ENDBRANCH   4   7
BRANCH   1  28
ATOM     25  N   UNL     1      -0.689  -2.925   1.071  0.00  0.00    -0.269 N 
ATOM     26  C   UNL     1      -0.738  -4.268   1.166  0.00  0.00    +0.308 C 
ATOM     27  O   UNL     1      -0.959  -4.940   0.177  0.00  0.00    -0.252 OA
ATOM     28  N   UNL     1      -0.542  -4.867   2.358  0.00  0.00    -0.269 N 
ATOM     29  H   UNL     1      -0.444  -2.392   1.844  0.00  0.00    +0.156 HD
ATOM     30  H   UNL     1      -0.437  -4.330   3.159  0.00  0.00    +0.156 HD
BRANCH  25  36
ATOM     31  C   UNL     1       0.069   0.762  -2.092  0.00  0.00    +0.044 C 
ATOM     32  C   UNL     1      -0.638  -0.509  -1.701  0.00  0.00    -0.049 A 
ATOM     33  C   UNL     1      -1.589  -1.058  -2.543  0.00  0.00    +0.003 A 
ATOM     34  C   UNL     1      -2.240  -2.224  -2.188  0.00  0.00    +0.002 A 
ATOM     35  C   UNL     1      -1.944  -2.846  -0.991  0.00  0.00    +0.023 A 
ATOM     36  C   UNL     1      -0.990  -2.298  -0.143  0.00  0.00    +0.035 A 
ATOM     37  C   UNL     1      -0.334  -1.129  -0.505  0.00  0.00    +0.026 A 
ENDBRANCH  25  36
ENDBRANCH   1  28
TORSDOF 5
