REMARK  Name = CHEMBL244101
REMARK  7 active torsions:
REMARK  status: ('A' for Active; 'I' for Inactive)
REMARK    1  A    between atoms: C_1  and  O_2
REMARK    2  A    between atoms: O_2  and  C_3
REMARK    3  A    between atoms: C_13  and  O_15
REMARK    4  A    between atoms: O_15  and  C_16
REMARK    5  A    between atoms: C_19  and  N_22
REMARK    6  A    between atoms: N_25  and  C_26
REMARK    7  A    between atoms: C_28  and  C_33
REMARK                            x       y       z     vdW  Elec       q    Type
REMARK                         _______ _______ _______ _____ _____    ______ ____
ROOT
ATOM      1  C   UNL     1      -8.703  -2.814   0.098  0.00  0.00    +0.130 A 
ATOM      2  C   UNL     1      -7.991  -1.625   0.033  0.00  0.00    +0.048 A 
ATOM      3  C   UNL     1      -8.659  -0.417   0.073  0.00  0.00    +0.027 A 
ATOM      4  C   UNL     1     -10.043  -0.393   0.177  0.00  0.00    +0.035 A 
ATOM      5  C   UNL     1     -10.755  -1.583   0.241  0.00  0.00    +0.027 A 
ATOM      6  C   UNL     1     -10.087  -2.790   0.196  0.00  0.00    +0.048 A 
ENDROOT
BRANCH   4   7
ATOM      7  N   UNL     1     -10.721   0.833   0.218  0.00  0.00    -0.269 N 
ATOM      8  C   UNL     1     -10.265   1.880  -0.498  0.00  0.00    +0.308 C 
ATOM      9  O   UNL     1      -9.221   1.786  -1.113  0.00  0.00    -0.252 OA
ATOM     10  N   UNL     1     -10.967   3.030  -0.532  0.00  0.00    -0.267 N 
ATOM     11  H   UNL     1     -11.519   0.928   0.762  0.00  0.00    +0.156 HD
ATOM     12  H   UNL     1     -11.769   3.124   0.005  0.00  0.00    +0.156 HD
BRANCH  10  13
ATOM     13  C   UNL     1     -10.538   4.088  -1.343  0.00  0.00    +0.071 A 
ATOM     14  C   UNL     1      -9.198   4.203  -1.687  0.00  0.00    +0.038 A 
ATOM     15  C   UNL     1      -8.778   5.247  -2.486  0.00  0.00    +0.057 A 
ATOM     16  C   UNL     1      -9.690   6.180  -2.946  0.00  0.00    +0.015 A 
ATOM     17  C   UNL     1     -11.026   6.070  -2.607  0.00  0.00    +0.041 A 
ATOM     18  C   UNL     1     -11.455   5.023  -1.811  0.00  0.00    +0.145 A 
ATOM     19  F   UNL     1     -12.761   4.912  -1.484  0.00  0.00    -0.204 F 
BRANCH  15  20
ATOM     20  C   UNL     1      -7.323   5.372  -2.859  0.00  0.00    +0.417 C 
ATOM     21  F   UNL     1      -7.084   4.674  -4.047  0.00  0.00    -0.166 F 
ATOM     22  F   UNL     1      -7.001   6.721  -3.038  0.00  0.00    -0.166 F 
ATOM     23  F   UNL     1      -6.533   4.836  -1.836  0.00  0.00    -0.166 F 
ENDBRANCH  15  20
ENDBRANCH  10  13
ENDBRANCH   4   7
BRANCH   1  24
ATOM     24  O   UNL     1      -8.045  -4.003   0.059  0.00  0.00    -0.438 OA
BRANCH  24  35
ATOM     25  C   UNL     1      -5.626  -2.712   7.186  0.00  0.00    +0.407 C 
ATOM     26  O   UNL     1      -6.274  -1.886   6.574  0.00  0.00    -0.226 OA
ATOM     27  N   UNL     1      -5.319  -3.890   6.608  0.00  0.00    -0.220 N 
ATOM     28  C   UNL     1      -5.742  -4.159   5.317  0.00  0.00    +0.227 A 
ATOM     29  N   UNL     1      -6.470  -3.307   4.535  0.00  0.00    -0.193 NA
ATOM     30  C   UNL     1      -6.689  -3.939   3.327  0.00  0.00    +0.185 A 
ATOM     31  C   UNL     1      -6.065  -5.194   3.428  0.00  0.00    +0.112 A 
ATOM     32  N   UNL     1      -5.501  -5.266   4.663  0.00  0.00    -0.211 NA
ATOM     33  C   UNL     1      -6.120  -6.070   2.340  0.00  0.00    +0.037 A 
ATOM     34  C   UNL     1      -6.791  -5.661   1.204  0.00  0.00    +0.070 A 
ATOM     35  C   UNL     1      -7.386  -4.404   1.176  0.00  0.00    +0.223 A 
ATOM     36  N   UNL     1      -7.321  -3.592   2.217  0.00  0.00    -0.191 NA
ATOM     37  H   UNL     1      -4.801  -4.549   7.096  0.00  0.00    +0.161 HD
BRANCH  25  39
ATOM     38  C   UNL     1      -5.575  -1.181   8.991  0.00  0.00    +0.282 C 
ATOM     39  O   UNL     1      -5.214  -2.450   8.441  0.00  0.00    -0.453 OA
ENDBRANCH  25  39
ENDBRANCH  24  35
ENDBRANCH   1  24
TORSDOF 6
