REMARK  Name = CHEMBL270978
REMARK  9 active torsions:
REMARK  status: ('A' for Active; 'I' for Inactive)
REMARK    1  A    between atoms: C_1  and  C_2
REMARK    2  A    between atoms: C_4  and  N_7
REMARK    3  A    between atoms: C_8  and  C_10
REMARK    4  A    between atoms: C_18  and  O_20
REMARK    5  A    between atoms: O_20  and  C_21
REMARK    6  A    between atoms: C_28  and  O_33
REMARK    7  A    between atoms: C_29  and  O_31
REMARK    8  A    between atoms: O_31  and  C_32
REMARK    9  A    between atoms: O_33  and  C_34
REMARK                            x       y       z     vdW  Elec       q    Type
REMARK                         _______ _______ _______ _____ _____    ______ ____
ROOT
ATOM      1  C   UNL     1       0.064  -5.662  -1.907  0.00  0.00    +0.045 A 
ATOM      2  C   UNL     1      -0.055  -5.528  -3.282  0.00  0.00    +0.014 A 
ATOM      3  C   UNL     1      -0.054  -6.647  -4.105  0.00  0.00    +0.001 A 
ATOM      4  C   UNL     1       0.064  -7.903  -3.589  0.00  0.00    +0.008 A 
ATOM      5  C   UNL     1       0.187  -8.086  -2.200  0.00  0.00    -0.014 A 
ATOM      6  C   UNL     1       0.194  -6.957  -1.345  0.00  0.00    -0.006 A 
ATOM      7  C   UNL     1       0.323  -7.139   0.039  0.00  0.00    +0.013 A 
ATOM      8  C   UNL     1       0.445  -8.396   0.547  0.00  0.00    +0.047 A 
ATOM      9  C   UNL     1       0.446  -9.513  -0.294  0.00  0.00    +0.129 A 
ATOM     10  C   UNL     1       0.309  -9.371  -1.646  0.00  0.00    +0.054 A 
ENDROOT
BRANCH   1  12
ATOM     11  N   UNL     1       0.068  -3.239  -1.585  0.00  0.00    -0.250 N 
ATOM     12  C   UNL     1       0.062  -4.471  -1.039  0.00  0.00    +0.251 C 
ATOM     13  O   UNL     1       0.055  -4.599   0.171  0.00  0.00    -0.270 OA
ATOM     14  H   UNL     1       0.074  -3.136  -2.550  0.00  0.00    +0.158 HD
BRANCH  11  18
ATOM     15  C   UNL     1       0.070   1.503  -0.049  0.00  0.00    +0.069 C 
ATOM     16  C   UNL     1       0.066  -0.004  -0.049  0.00  0.00    +0.082 A 
ATOM     17  C   UNL     1       0.071  -0.825  -1.185  0.00  0.00    +0.092 A 
ATOM     18  C   UNL     1       0.066  -2.118  -0.769  0.00  0.00    +0.224 A 
ATOM     19  O   UNL     1       0.058  -2.117   0.574  0.00  0.00    -0.339 OA
ATOM     20  N   UNL     1       0.063  -0.769   1.007  0.00  0.00    -0.081 NA
ENDBRANCH  11  18
ENDBRANCH   1  12
BRANCH   9  21
ATOM     21  O   UNL     1       0.571 -10.756   0.241  0.00  0.00    -0.455 OA
BRANCH  21  22
ATOM     22  C   UNL     1       1.765 -11.385   0.118  0.00  0.00    +0.139 A 
ATOM     23  C   UNL     1       2.857 -10.740  -0.437  0.00  0.00    +0.064 A 
ATOM     24  C   UNL     1       4.068 -11.409  -0.550  0.00  0.00    +0.086 A 
ATOM     25  N   UNL     1       4.214 -12.649  -0.144  0.00  0.00    -0.360 N 
ATOM     26  C   UNL     1       3.201 -13.333   0.401  0.00  0.00    +0.054 A 
ATOM     27  C   UNL     1       1.935 -12.717   0.556  0.00  0.00    +0.044 A 
ATOM     28  C   UNL     1       0.876 -13.434   1.133  0.00  0.00    +0.063 A 
ATOM     29  C   UNL     1       1.077 -14.720   1.546  0.00  0.00    +0.162 A 
ATOM     30  C   UNL     1       2.331 -15.331   1.399  0.00  0.00    +0.163 A 
ATOM     31  C   UNL     1       3.375 -14.659   0.830  0.00  0.00    +0.075 A 
ATOM     32  H   UNL     1       5.077 -13.081  -0.242  0.00  0.00    +0.165 HD
BRANCH  30  33
ATOM     33  O   UNL     1       2.506 -16.611   1.817  0.00  0.00    -0.491 OA
ATOM     34  C   UNL     1       3.805 -17.180   1.641  0.00  0.00    +0.277 C 
ENDBRANCH  30  33
BRANCH  29  35
ATOM     35  O   UNL     1       0.051 -15.415   2.105  0.00  0.00    -0.491 OA
ATOM     36  C   UNL     1      -1.201 -14.737   2.228  0.00  0.00    +0.277 C 
ENDBRANCH  29  35
ENDBRANCH  21  22
ENDBRANCH   9  21
TORSDOF 6
