REMARK  Name = CHEMBL231269
REMARK  10 active torsions:
REMARK  status: ('A' for Active; 'I' for Inactive)
REMARK    1  A    between atoms: C_1  and  N_2
REMARK    2  A    between atoms: C_3  and  C_5
REMARK    3  A    between atoms: C_7  and  O_11
REMARK    4  A    between atoms: O_11  and  C_12
REMARK    5  A    between atoms: N_22  and  C_23
REMARK    6  A    between atoms: C_26  and  C_38
REMARK    7  A    between atoms: C_27  and  O_29
REMARK    8  A    between atoms: O_29  and  C_30
REMARK    9  A    between atoms: C_30  and  C_31
REMARK   10  A    between atoms: N_36  and  C_37
REMARK                            x       y       z     vdW  Elec       q    Type
REMARK                         _______ _______ _______ _____ _____    ______ ____
ROOT
ATOM      1  C   UNL     1      -2.487  -7.233   2.256  0.00  0.00    +0.131 A 
ATOM      2  C   UNL     1      -3.735  -6.691   1.965  0.00  0.00    +0.048 A 
ATOM      3  C   UNL     1      -4.732  -7.482   1.434  0.00  0.00    +0.031 A 
ATOM      4  C   UNL     1      -4.492  -8.825   1.187  0.00  0.00    +0.068 A 
ATOM      5  C   UNL     1      -3.235  -9.380   1.478  0.00  0.00    +0.094 A 
ATOM      6  C   UNL     1      -2.231  -8.568   2.011  0.00  0.00    +0.076 A 
ATOM      7  N   UNL     1      -3.289 -10.694   1.138  0.00  0.00    -0.214 NA
ATOM      8  C   UNL     1      -4.478 -10.978   0.665  0.00  0.00    +0.198 A 
ATOM      9  N   UNL     1      -5.260  -9.860   0.674  0.00  0.00    -0.326 N 
ATOM     10  H   UNL     1      -6.181  -9.799   0.376  0.00  0.00    +0.169 HD
ATOM     11  N   UNL     1      -4.879 -12.224   0.225  0.00  0.00    -0.285 N 
ATOM     12  H   UNL     1      -5.746 -12.333  -0.196  0.00  0.00    +0.155 HD
ENDROOT
BRANCH  11  13
ATOM     13  C   UNL     1      -4.036 -13.327   0.386  0.00  0.00    +0.037 A 
ATOM     14  C   UNL     1      -2.657 -13.154   0.394  0.00  0.00    +0.024 A 
ATOM     15  C   UNL     1      -1.825 -14.244   0.553  0.00  0.00    +0.018 A 
ATOM     16  C   UNL     1      -2.360 -15.510   0.705  0.00  0.00    +0.096 A 
ATOM     17  C   UNL     1      -3.736 -15.689   0.698  0.00  0.00    +0.134 A 
ATOM     18  C   UNL     1      -4.575 -14.596   0.544  0.00  0.00    +0.069 A 
BRANCH  16  19
ATOM     19  C   UNL     1      -1.448 -16.697   0.878  0.00  0.00    +0.421 C 
ATOM     20  F   UNL     1      -0.116 -16.269   0.851  0.00  0.00    -0.166 F 
ATOM     21  F   UNL     1      -1.714 -17.316   2.104  0.00  0.00    -0.166 F 
ATOM     22  F   UNL     1      -1.666 -17.608  -0.162  0.00  0.00    -0.166 F 
ENDBRANCH  16  19
BRANCH  17  23
ATOM     23  O   UNL     1      -4.261 -16.933   0.847  0.00  0.00    -0.493 OA
BRANCH  23  24
ATOM     24  C   UNL     1      -5.685 -17.043   0.830  0.00  0.00    +0.214 C 
BRANCH  24  25
ATOM     25  C   UNL     1      -6.086 -18.509   1.009  0.00  0.00    -0.031 C 
ATOM     26  C   UNL     1      -5.340 -19.401  -0.014  0.00  0.00    -0.014 C 
ATOM     27  C   UNL     1      -5.361 -20.779   0.698  0.00  0.00    -0.020 C 
ATOM     28  C   UNL     1      -5.207 -20.404   2.186  0.00  0.00    -0.079 C 
ATOM     29  N   UNL     1      -5.650 -19.003   2.333  0.00  0.00    +0.382 N 
ATOM     30  C   UNL     1      -6.769 -18.932   3.281  0.00  0.00    -0.096 C 
ATOM     31  H   UNL     1      -4.884 -18.439   2.670  0.00  0.00    -0.082 HD
ENDBRANCH  24  25
ENDBRANCH  23  24
ENDBRANCH  17  23
ENDBRANCH  11  13
BRANCH   1  32
ATOM     32  O   UNL     1      -1.513  -6.443   2.780  0.00  0.00    -0.456 OA
BRANCH  32  35
ATOM     33  C   UNL     1      -1.725  -7.454   6.279  0.00  0.00    +0.129 A 
ATOM     34  C   UNL     1      -2.007  -7.395   4.918  0.00  0.00    +0.079 A 
ATOM     35  C   UNL     1      -1.269  -6.530   4.113  0.00  0.00    +0.132 A 
ATOM     36  C   UNL     1      -0.276  -5.757   4.709  0.00  0.00    +0.066 A 
ATOM     37  C   UNL     1      -0.055  -5.872   6.069  0.00  0.00    +0.115 A 
ATOM     38  N   UNL     1      -0.771  -6.695   6.805  0.00  0.00    -0.250 NA
BRANCH  33  41
ATOM     39  C   UNL     1      -3.002  -9.330   9.331  0.00  0.00    +0.128 C 
ATOM     40  N   UNL     1      -2.236  -8.427   8.470  0.00  0.00    -0.313 N 
ATOM     41  C   UNL     1      -2.500  -8.368   7.150  0.00  0.00    +0.262 C 
ATOM     42  O   UNL     1      -3.374  -9.066   6.674  0.00  0.00    -0.269 OA
ATOM     43  H   UNL     1      -1.538  -7.870   8.850  0.00  0.00    +0.149 HD
ENDBRANCH  33  41
ENDBRANCH  32  35
ENDBRANCH   1  32
TORSDOF 8
