REMARK  Name = CHEMBL194176
REMARK  8 active torsions:
REMARK  status: ('A' for Active; 'I' for Inactive)
REMARK    1  A    between atoms: C_1  and  C_2
REMARK    2  A    between atoms: C_2  and  S_3
REMARK    3  A    between atoms: S_3  and  C_6
REMARK    4  A    between atoms: C_9  and  O_30
REMARK    5  A    between atoms: C_10  and  N_12
REMARK    6  A    between atoms: C_16  and  C_18
REMARK    7  A    between atoms: C_22  and  C_24
REMARK    8  A    between atoms: O_30  and  C_31
REMARK                            x       y       z     vdW  Elec       q    Type
REMARK                         _______ _______ _______ _____ _____    ______ ____
ROOT
ATOM      1  N   UNL     1       2.839  -5.096  -0.081  0.00  0.00    -0.266 N 
ATOM      2  C   UNL     1       3.835  -4.388  -0.722  0.00  0.00    +0.292 A 
ATOM      3  N   UNL     1       3.982  -3.084  -0.697  0.00  0.00    -0.203 NA
ATOM      4  C   UNL     1       5.057  -2.755  -1.430  0.00  0.00    +0.163 A 
ATOM      5  C   UNL     1       5.587  -3.903  -1.922  0.00  0.00    +0.157 A 
ATOM      6  O   UNL     1       4.816  -4.921  -1.468  0.00  0.00    -0.424 OA
ATOM      7  H   UNL     1       2.843  -6.066  -0.102  0.00  0.00    +0.157 HD
ENDROOT
BRANCH   1  12
ATOM      8  C   UNL     1       0.730  -2.362   1.188  0.00  0.00    +0.090 A 
ATOM      9  C   UNL     1      -0.191  -3.066   1.942  0.00  0.00    +0.030 A 
ATOM     10  C   UNL     1      -0.111  -4.444   2.028  0.00  0.00    +0.049 A 
ATOM     11  C   UNL     1       0.893  -5.123   1.358  0.00  0.00    +0.141 A 
ATOM     12  C   UNL     1       1.822  -4.415   0.598  0.00  0.00    +0.079 A 
ATOM     13  C   UNL     1       1.732  -3.033   0.512  0.00  0.00    +0.054 A 
BRANCH   8  14
ATOM     14  S   UNL     1       0.622  -0.607   1.083  0.00  0.00    -0.003 S 
ATOM     15  O   UNL     1       1.948  -0.178   0.804  0.00  0.00    -0.169 OA
ATOM     16  O   UNL     1      -0.030  -0.211   2.282  0.00  0.00    -0.169 OA
BRANCH  14  18
ATOM     17  C   UNL     1      -0.617   1.219  -0.534  0.00  0.00    +0.028 C 
ATOM     18  C   UNL     1      -0.451  -0.291  -0.345  0.00  0.00    +0.168 C 
ENDBRANCH  14  18
ENDBRANCH   8  14
BRANCH  11  19
ATOM     19  O   UNL     1       0.974  -6.478   1.443  0.00  0.00    -0.493 OA
ATOM     20  C   UNL     1      -0.011  -7.138   2.241  0.00  0.00    +0.277 C 
ENDBRANCH  11  19
ENDBRANCH   1  12
BRANCH   5  21
ATOM     21  C   UNL     1       6.779  -4.022  -2.785  0.00  0.00    +0.020 A 
ATOM     22  C   UNL     1       7.484  -2.878  -3.167  0.00  0.00    +0.011 A 
ATOM     23  C   UNL     1       8.599  -2.988  -3.973  0.00  0.00    +0.001 A 
ATOM     24  C   UNL     1       9.024  -4.229  -4.407  0.00  0.00    +0.010 A 
ATOM     25  C   UNL     1       8.330  -5.379  -4.032  0.00  0.00    +0.001 A 
ATOM     26  C   UNL     1       7.209  -5.277  -3.215  0.00  0.00    +0.021 A 
BRANCH  25  27
ATOM     27  C   UNL     1       8.790  -6.710  -4.500  0.00  0.00    +0.071 A 
ATOM     28  C   UNL     1       9.977  -6.817  -5.221  0.00  0.00    +0.028 A 
ATOM     29  C   UNL     1      10.393  -8.065  -5.650  0.00  0.00    +0.004 A 
ATOM     30  C   UNL     1       9.607  -9.167  -5.344  0.00  0.00    +0.020 A 
ATOM     31  C   UNL     1       8.440  -8.988  -4.625  0.00  0.00    +0.111 A 
ATOM     32  N   UNL     1       8.070  -7.789  -4.223  0.00  0.00    -0.255 NA
ENDBRANCH  25  27
ENDBRANCH   5  21
TORSDOF 6
