REMARK  Name = CHEMBL231411
REMARK  4 active torsions:
REMARK  status: ('A' for Active; 'I' for Inactive)
REMARK    1  A    between atoms: C_6  and  N_11
REMARK    2  A    between atoms: N_14  and  C_15
REMARK    3  A    between atoms: C_18  and  C_21
REMARK    4  A    between atoms: C_26  and  N_30
REMARK                            x       y       z     vdW  Elec       q    Type
REMARK                         _______ _______ _______ _____ _____    ______ ____
ROOT
ATOM      1  C   UNL     1       5.188  -6.115   0.487  0.00  0.00    +0.035 A 
ATOM      2  C   UNL     1       4.129  -6.881   0.015  0.00  0.00    +0.024 A 
ATOM      3  C   UNL     1       4.235  -8.255  -0.026  0.00  0.00    +0.010 A 
ATOM      4  C   UNL     1       5.406  -8.876   0.406  0.00  0.00    -0.017 A 
ATOM      5  C   UNL     1       6.467  -8.105   0.880  0.00  0.00    +0.010 A 
ATOM      6  C   UNL     1       6.358  -6.731   0.913  0.00  0.00    +0.024 A 
ENDROOT
BRANCH   4   7
ATOM      7  C   UNL     1       5.522 -10.353   0.364  0.00  0.00    +0.000 A 
ATOM      8  C   UNL     1       5.795 -11.055   1.489  0.00  0.00    +0.055 A 
ATOM      9  S   UNL     1       5.830 -12.747   0.926  0.00  0.00    -0.096 S 
ATOM     10  C   UNL     1       5.481 -12.477  -0.790  0.00  0.00    +0.024 A 
ATOM     11  C   UNL     1       5.339 -11.077  -0.890  0.00  0.00    +0.035 A 
ATOM     12  C   UNL     1       5.046 -10.579  -2.186  0.00  0.00    +0.102 A 
ATOM     13  N   UNL     1       4.916 -11.398  -3.209  0.00  0.00    -0.349 N 
ATOM     14  C   UNL     1       5.046 -12.711  -3.107  0.00  0.00    +0.085 A 
ATOM     15  C   UNL     1       5.339 -13.289  -1.901  0.00  0.00    +0.033 A 
ATOM     16  H   UNL     1       4.714 -11.020  -4.079  0.00  0.00    +0.167 HD
BRANCH  12  17
ATOM     17  N   UNL     1       4.894  -9.212  -2.377  0.00  0.00    -0.344 N 
ATOM     18  H   UNL     1       5.319  -8.587  -1.769  0.00  0.00    +0.144 HD
ATOM     19  H   UNL     1       4.362  -8.882  -3.118  0.00  0.00    +0.144 HD
ENDBRANCH  12  17
ENDBRANCH   4   7
BRANCH   1  23
ATOM     20  N   UNL     1       3.767  -2.806   0.784  0.00  0.00    -0.269 N 
ATOM     21  C   UNL     1       3.898  -4.146   0.836  0.00  0.00    +0.308 C 
ATOM     22  O   UNL     1       2.952  -4.837   1.160  0.00  0.00    -0.252 OA
ATOM     23  N   UNL     1       5.078  -4.720   0.527  0.00  0.00    -0.269 N 
ATOM     24  H   UNL     1       4.501  -2.259   0.464  0.00  0.00    +0.156 HD
ATOM     25  H   UNL     1       5.851  -4.167   0.333  0.00  0.00    +0.156 HD
BRANCH  20  31
ATOM     26  C   UNL     1      -0.988   0.758   3.051  0.00  0.00    +0.001 A 
ATOM     27  C   UNL     1       0.222   1.394   3.319  0.00  0.00    +0.001 A 
ATOM     28  C   UNL     1       1.405   0.840   2.937  0.00  0.00    +0.008 A 
ATOM     29  C   UNL     1       1.408  -0.393   2.261  0.00  0.00    -0.016 A 
ATOM     30  C   UNL     1       2.610  -0.995   1.852  0.00  0.00    +0.031 A 
ATOM     31  C   UNL     1       2.573  -2.203   1.193  0.00  0.00    +0.035 A 
ATOM     32  C   UNL     1       1.352  -2.835   0.927  0.00  0.00    +0.024 A 
ATOM     33  C   UNL     1       0.176  -2.273   1.312  0.00  0.00    +0.010 A 
ATOM     34  C   UNL     1       0.177  -1.040   1.988  0.00  0.00    -0.018 A 
ATOM     35  C   UNL     1      -1.024  -0.436   2.399  0.00  0.00    +0.008 A 
ENDBRANCH  20  31
ENDBRANCH   1  23
TORSDOF 4
