REMARK  Name = CHEMBL390353
REMARK  9 active torsions:
REMARK  status: ('A' for Active; 'I' for Inactive)
REMARK    1  A    between atoms: C_1  and  N_2
REMARK    2  A    between atoms: N_5  and  C_8
REMARK    3  A    between atoms: C_8  and  C_9
REMARK    4  A    between atoms: C_9  and  C_10
REMARK    5  A    between atoms: C_22  and  C_23
REMARK    6  A    between atoms: C_25  and  C_28
REMARK    7  A    between atoms: C_29  and  C_30
REMARK    8  A    between atoms: C_30  and  O_31
REMARK    9  A    between atoms: O_31  and  C_32
REMARK                            x       y       z     vdW  Elec       q    Type
REMARK                         _______ _______ _______ _____ _____    ______ ____
ROOT
ATOM      1  C   UNL     1      -0.093  -5.992   2.585  0.00  0.00    -0.046 A 
ATOM      2  C   UNL     1      -1.208  -6.664   3.054  0.00  0.00    +0.004 A 
ATOM      3  C   UNL     1      -1.223  -8.043   3.095  0.00  0.00    +0.010 A 
ATOM      4  C   UNL     1      -0.108  -8.765   2.660  0.00  0.00    +0.004 A 
ATOM      5  C   UNL     1       1.009  -8.077   2.189  0.00  0.00    -0.034 A 
ATOM      6  C   UNL     1       1.013  -6.700   2.148  0.00  0.00    +0.008 A 
ATOM      7  C   UNL     1       2.033  -9.114   1.800  0.00  0.00    +0.075 C 
ATOM      8  C   UNL     1       1.396 -10.451   2.092  0.00  0.00    +0.010 A 
ATOM      9  C   UNL     1       0.150 -10.220   2.592  0.00  0.00    +0.070 A 
ATOM     10  N   UNL     1      -0.415 -11.438   2.853  0.00  0.00    -0.276 N 
ATOM     11  H   UNL     1      -1.301 -11.589   3.216  0.00  0.00    +0.189 HD
ATOM     12  N   UNL     1       0.511 -12.428   2.502  0.00  0.00    -0.173 NA
ATOM     13  C   UNL     1       1.596 -11.839   2.046  0.00  0.00    +0.097 A 
ENDROOT
BRANCH  13  14
ATOM     14  C   UNL     1       2.822 -12.526   1.565  0.00  0.00    +0.011 A 
ATOM     15  C   UNL     1       3.249 -13.706   2.155  0.00  0.00    +0.034 A 
ATOM     16  C   UNL     1       4.384 -14.305   1.679  0.00  0.00    +0.063 A 
ATOM     17  S   UNL     1       4.874 -13.195   0.370  0.00  0.00    -0.088 S 
ATOM     18  C   UNL     1       3.549 -12.010   0.526  0.00  0.00    +0.056 A 
BRANCH  16  19
ATOM     19  C   UNL     1       5.015 -15.513   2.119  0.00  0.00    -0.056 C 
ATOM     20  C   UNL     1       5.533 -16.503   2.479  0.00  0.00    -0.056 C 
BRANCH  20  21
ATOM     21  C   UNL     1       6.183 -17.744   2.931  0.00  0.00    +0.318 C 
BRANCH  21  22
ATOM     22  O   UNL     1       7.348 -17.987   2.142  0.00  0.00    -0.480 OA
BRANCH  22  23
ATOM     23  C   UNL     1       8.069 -19.102   2.432  0.00  0.00    +0.122 A 
ATOM     24  C   UNL     1       7.659 -19.948   3.451  0.00  0.00    +0.046 A 
ATOM     25  C   UNL     1       8.393 -21.081   3.744  0.00  0.00    +0.004 A 
ATOM     26  C   UNL     1       9.536 -21.372   3.022  0.00  0.00    +0.000 A 
ATOM     27  C   UNL     1       9.947 -20.530   2.005  0.00  0.00    +0.004 A 
ATOM     28  C   UNL     1       9.213 -19.399   1.704  0.00  0.00    +0.046 A 
ENDBRANCH  22  23
ENDBRANCH  21  22
ENDBRANCH  20  21
ENDBRANCH  16  19
ENDBRANCH  13  14
BRANCH   1  29
ATOM     29  C   UNL     1      -0.086  -4.485   2.544  0.00  0.00    +0.050 C 
BRANCH  29  30
ATOM     30  C   UNL     1      -0.632  -4.009   1.196  0.00  0.00    +0.089 C 
BRANCH  30  35
ATOM     31  C   UNL     1      -0.018   1.465   0.010  0.00  0.00    -0.096 C 
ATOM     32  N   UNL     1       0.002  -0.004   0.002  0.00  0.00    +0.379 N 
ATOM     33  C   UNL     1      -1.376  -0.512   0.011  0.00  0.00    -0.064 C 
ATOM     34  C   UNL     1      -1.356  -2.042  -0.017  0.00  0.00    +0.066 C 
ATOM     35  N   UNL     1      -0.624  -2.541   1.156  0.00  0.00    -0.306 NA
ATOM     36  C   UNL     1       0.750  -2.020   1.175  0.00  0.00    +0.066 C 
ATOM     37  C   UNL     1       0.713  -0.490   1.192  0.00  0.00    -0.064 C 
ATOM     38  H   UNL     1       0.475  -0.329  -0.828  0.00  0.00    -0.082 HD
ENDBRANCH  30  35
ENDBRANCH  29  30
ENDBRANCH   1  29
TORSDOF 8
