REMARK  Name = CHEMBL473287
REMARK  5 active torsions:
REMARK  status: ('A' for Active; 'I' for Inactive)
REMARK    1  A    between atoms: C_3  and  N_8
REMARK    2  A    between atoms: C_9  and  C_11
REMARK    3  A    between atoms: C_12  and  N_16
REMARK    4  A    between atoms: N_16  and  C_17
REMARK    5  A    between atoms: C_17  and  C_18
REMARK                            x       y       z     vdW  Elec       q    Type
REMARK                         _______ _______ _______ _____ _____    ______ ____
ROOT
ATOM      1  C   UNL     1       6.018   2.226   0.169  0.00  0.00    +0.155 A 
ATOM      2  C   UNL     1       7.257   1.585   0.255  0.00  0.00    +0.067 A 
ATOM      3  C   UNL     1       8.314   2.436   0.343  0.00  0.00    +0.090 A 
ATOM      4  S   UNL     1       7.596   3.949   0.304  0.00  0.00    +0.006 S 
ATOM      5  N   UNL     1       6.038   3.545   0.178  0.00  0.00    -0.204 NA
ENDROOT
BRANCH   1   7
ATOM      6  N   UNL     1       3.583   2.124  -0.021  0.00  0.00    -0.280 N 
ATOM      7  C   UNL     1       4.758   1.469   0.066  0.00  0.00    +0.269 C 
ATOM      8  O   UNL     1       4.777   0.253   0.060  0.00  0.00    -0.268 OA
ATOM      9  H   UNL     1       3.571   3.092  -0.084  0.00  0.00    +0.155 HD
BRANCH   6  12
ATOM     10  C   UNL     1       0.070   1.231   0.593  0.00  0.00    +0.003 A 
ATOM     11  C   UNL     1       1.256   1.940   0.595  0.00  0.00    +0.023 A 
ATOM     12  C   UNL     1       2.382   1.409  -0.021  0.00  0.00    +0.035 A 
ATOM     13  C   UNL     1       2.312   0.166  -0.637  0.00  0.00    +0.038 A 
ATOM     14  C   UNL     1       1.123  -0.538  -0.636  0.00  0.00    +0.020 A 
ATOM     15  C   UNL     1       0.003  -0.005  -0.021  0.00  0.00    +0.015 A 
ATOM     16 BR   UNL     1       1.026  -2.230  -1.474  0.00  0.00    -0.050 Br
ENDBRANCH   6  12
ENDBRANCH   1   7
BRANCH   2  17
ATOM     17  N   UNL     1       7.398   0.189   0.252  0.00  0.00    -0.337 N 
ATOM     18  H   UNL     1       6.613  -0.377   0.188  0.00  0.00    +0.146 HD
BRANCH  17  19
ATOM     19  C   UNL     1       8.730  -0.413   0.346  0.00  0.00    +0.137 C 
BRANCH  19  20
ATOM     20  C   UNL     1       8.605  -1.915   0.323  0.00  0.00    -0.028 A 
ATOM     21  C   UNL     1       8.451  -2.633   1.499  0.00  0.00    +0.025 A 
ATOM     22  C   UNL     1       8.340  -4.009   1.438  0.00  0.00    +0.111 A 
ATOM     23  N   UNL     1       8.379  -4.638   0.280  0.00  0.00    -0.263 NA
ATOM     24  C   UNL     1       8.524  -3.988  -0.858  0.00  0.00    +0.111 A 
ATOM     25  C   UNL     1       8.635  -2.611  -0.876  0.00  0.00    +0.025 A 
ENDBRANCH  19  20
ENDBRANCH  17  19
ENDBRANCH   2  17
TORSDOF 5
