REMARK  Name = CHEMBL445404
REMARK  10 active torsions:
REMARK  status: ('A' for Active; 'I' for Inactive)
REMARK    1  A    between atoms: C_1  and  O_2
REMARK    2  A    between atoms: O_2  and  C_3
REMARK    3  A    between atoms: C_3  and  C_4
REMARK    4  A    between atoms: C_4  and  O_5
REMARK    5  A    between atoms: O_5  and  C_6
REMARK    6  A    between atoms: C_6  and  C_7
REMARK    7  A    between atoms: C_8  and  C_9
REMARK    8  A    between atoms: C_11  and  C_14
REMARK    9  A    between atoms: C_23  and  C_27
REMARK   10  A    between atoms: C_27  and  N_28
REMARK                            x       y       z     vdW  Elec       q    Type
REMARK                         _______ _______ _______ _____ _____    ______ ____
ROOT
ATOM      1  C   UNL     1      -8.390  -3.814  -1.639  0.00  0.00    +0.070 A 
ATOM      2  C   UNL     1      -9.433  -4.036  -2.487  0.00  0.00    +0.010 A 
ATOM      3  C   UNL     1     -10.359  -2.993  -2.322  0.00  0.00    +0.097 A 
ATOM      4  N   UNL     1      -9.887  -2.170  -1.404  0.00  0.00    -0.173 NA
ATOM      5  H   UNL     1      -8.092  -2.261  -0.278  0.00  0.00    +0.189 HD
ATOM      6  N   UNL     1      -8.657  -2.665  -0.955  0.00  0.00    -0.276 N 
ATOM      7  C   UNL     1     -11.508  -3.210  -3.237  0.00  0.00    +0.006 A 
ATOM      8  C   UNL     1     -12.669  -2.463  -3.446  0.00  0.00    +0.011 A 
ATOM      9  C   UNL     1     -13.602  -2.884  -4.370  0.00  0.00    +0.006 A 
ATOM     10  C   UNL     1     -13.393  -4.045  -5.092  0.00  0.00    -0.026 A 
ATOM     11  C   UNL     1     -12.245  -4.790  -4.890  0.00  0.00    +0.010 A 
ATOM     12  C   UNL     1     -11.306  -4.376  -3.968  0.00  0.00    -0.033 A 
ATOM     13  C   UNL     1      -9.985  -4.966  -3.538  0.00  0.00    +0.075 C 
ENDROOT
BRANCH   1  16
ATOM     14  C   UNL     1      -4.844  -4.933  -1.279  0.00  0.00    +0.063 A 
ATOM     15  C   UNL     1      -5.924  -4.105  -1.423  0.00  0.00    +0.034 A 
ATOM     16  C   UNL     1      -7.191  -4.668  -1.484  0.00  0.00    +0.008 A 
ATOM     17  C   UNL     1      -7.309  -6.031  -1.397  0.00  0.00    +0.056 A 
ATOM     18  S   UNL     1      -5.607  -6.545  -1.233  0.00  0.00    -0.088 S 
BRANCH  14  20
ATOM     19  C   UNL     1      -2.317  -4.313  -1.123  0.00  0.00    -0.068 C 
ATOM     20  C   UNL     1      -3.456  -4.592  -1.194  0.00  0.00    -0.057 C 
BRANCH  19  21
ATOM     21  C   UNL     1      -0.890  -3.963  -1.036  0.00  0.00    +0.248 C 
BRANCH  21  22
ATOM     22  O   UNL     1      -0.742  -2.545  -1.117  0.00  0.00    -0.365 OA
BRANCH  22  23
ATOM     23  C   UNL     1       0.613  -2.097  -1.041  0.00  0.00    +0.189 C 
BRANCH  23  24
ATOM     24  C   UNL     1       0.652  -0.570  -1.138  0.00  0.00    +0.187 C 
BRANCH  24  26
ATOM     25  C   UNL     1      -0.017   1.425   0.010  0.00  0.00    +0.194 C 
ATOM     26  O   UNL     1       0.002  -0.004   0.002  0.00  0.00    -0.381 OA
ENDBRANCH  24  26
ENDBRANCH  23  24
ENDBRANCH  22  23
ENDBRANCH  21  22
ENDBRANCH  19  21
ENDBRANCH  14  20
ENDBRANCH   1  16
BRANCH  10  27
ATOM     27  C   UNL     1     -14.416  -4.499  -6.101  0.00  0.00    +0.180 C 
BRANCH  27  28
ATOM     28  N   UNL     1     -14.104  -3.919  -7.409  0.00  0.00    -0.248 N 
ATOM     29  C   UNL     1     -13.930  -4.584  -8.564  0.00  0.00    +0.219 A 
ATOM     30  N   UNL     1     -13.667  -3.709  -9.501  0.00  0.00    -0.223 NA
ATOM     31  C   UNL     1     -13.665  -2.481  -8.984  0.00  0.00    +0.245 A 
ATOM     32  N   UNL     1     -13.933  -2.557  -7.707  0.00  0.00    -0.158 NA
ENDBRANCH  27  28
ENDBRANCH  10  27
TORSDOF 9
