REMARK  Name = CHEMBL223147
REMARK  5 active torsions:
REMARK  status: ('A' for Active; 'I' for Inactive)
REMARK    1  A    between atoms: C_1  and  C_2
REMARK    2  A    between atoms: C_2  and  N_3
REMARK    3  A    between atoms: C_10  and  C_13
REMARK    4  A    between atoms: C_10  and  C_14
REMARK    5  A    between atoms: C_27  and  C_28
REMARK                            x       y       z     vdW  Elec       q    Type
REMARK                         _______ _______ _______ _____ _____    ______ ____
ROOT
ATOM      1  N   UNL     1      -1.372  -0.511   0.012  0.00  0.00    -0.271 N 
ATOM      2  C   UNL     1      -2.094  -0.782   1.179  0.00  0.00    +0.041 A 
ATOM      3  C   UNL     1      -1.733  -0.656   2.512  0.00  0.00    +0.034 A 
ATOM      4  C   UNL     1      -2.646  -0.997   3.512  0.00  0.00    +0.005 A 
ATOM      5  C   UNL     1      -3.927  -1.462   3.174  0.00  0.00    +0.048 A 
ATOM      6  C   UNL     1      -4.275  -1.585   1.832  0.00  0.00    +0.032 A 
ATOM      7  C   UNL     1      -3.369  -1.248   0.856  0.00  0.00    -0.010 A 
ATOM      8  C   UNL     1      -3.441  -1.270  -0.654  0.00  0.00    +0.068 C 
ATOM      9  C   UNL     1      -2.086  -0.764  -1.097  0.00  0.00    +0.230 C 
ATOM     10  O   UNL     1      -1.712  -0.616  -2.242  0.00  0.00    -0.274 OA
ATOM     11  C   UNL     1      -3.677  -2.695  -1.159  0.00  0.00    +0.025 C 
ATOM     12  C   UNL     1      -4.546  -0.335  -1.151  0.00  0.00    +0.025 C 
ATOM     13  N   UNL     1      -4.595  -1.709   4.350  0.00  0.00    -0.353 N 
ATOM     14  H   UNL     1      -5.506  -2.038   4.414  0.00  0.00    +0.166 HD
ATOM     15  C   UNL     1      -3.778  -1.419   5.431  0.00  0.00    +0.071 A 
ATOM     16  C   UNL     1      -2.582  -0.986   4.980  0.00  0.00    -0.013 A 
ATOM     17  C   UNL     1      -1.380  -0.567   5.767  0.00  0.00    +0.038 C 
ATOM     18  C   UNL     1      -1.706   0.104   7.069  0.00  0.00    +0.009 C 
ATOM     19  C   UNL     1      -2.121  -0.831   8.168  0.00  0.00    +0.039 C 
ATOM     20  C   UNL     1      -3.525  -1.331   8.020  0.00  0.00    +0.002 A 
ATOM     21  C   UNL     1      -4.228  -1.585   6.833  0.00  0.00    +0.112 A 
ATOM     22  N   UNL     1      -5.435  -2.021   7.162  0.00  0.00    -0.172 NA
ATOM     23  N   UNL     1      -5.524  -2.049   8.558  0.00  0.00    -0.281 N 
ATOM     24  H   UNL     1      -6.297  -2.326   9.074  0.00  0.00    +0.189 HD
ATOM     25  C   UNL     1      -4.348  -1.623   9.060  0.00  0.00    +0.037 A 
ATOM     26  C   UNL     1      -4.005  -1.493  10.522  0.00  0.00    +0.065 C 
ENDROOT
BRANCH   1  28
ATOM     27  C   UNL     1      -0.019   1.526   0.010  0.00  0.00    +0.025 C 
ATOM     28  C   UNL     1       0.002  -0.004   0.002  0.00  0.00    +0.110 C 
ENDBRANCH   1  28
TORSDOF 1
