REMARK  Name = CHEMBL387590
REMARK  6 active torsions:
REMARK  status: ('A' for Active; 'I' for Inactive)
REMARK    1  A    between atoms: C_1  and  N_2
REMARK    2  A    between atoms: N_5  and  C_8
REMARK    3  A    between atoms: C_8  and  C_9
REMARK    4  A    between atoms: C_11  and  N_16
REMARK    5  A    between atoms: C_21  and  O_26
REMARK    6  A    between atoms: O_26  and  C_27
REMARK                            x       y       z     vdW  Elec       q    Type
REMARK                         _______ _______ _______ _____ _____    ______ ____
ROOT
ATOM      1  N   UNL     1      -0.639  -5.785   5.676  0.00  0.00    -0.269 N 
ATOM      2  C   UNL     1      -0.723  -5.663   7.046  0.00  0.00    +0.293 A 
ATOM      3  N   UNL     1      -1.716  -6.099   7.778  0.00  0.00    -0.195 NA
ATOM      4  C   UNL     1      -1.459  -5.806   9.082  0.00  0.00    +0.115 A 
ATOM      5  C   UNL     1      -2.151  -6.028  10.273  0.00  0.00    +0.078 A 
ATOM      6  C   UNL     1      -1.610  -5.597  11.470  0.00  0.00    +0.131 A 
ATOM      7  C   UNL     1      -0.381  -4.946  11.490  0.00  0.00    +0.050 A 
ATOM      8  C   UNL     1       0.310  -4.722  10.317  0.00  0.00    +0.052 A 
ATOM      9  C   UNL     1      -0.220  -5.149   9.109  0.00  0.00    +0.157 A 
ATOM     10  O   UNL     1       0.206  -5.084   7.826  0.00  0.00    -0.424 OA
ATOM     11  H   UNL     1      -1.388  -6.144   5.174  0.00  0.00    +0.157 HD
ENDROOT
BRANCH   1  14
ATOM     12  C   UNL     1       1.605  -4.537   3.045  0.00  0.00    -0.013 A 
ATOM     13  C   UNL     1       0.454  -4.927   3.701  0.00  0.00    +0.029 A 
ATOM     14  C   UNL     1       0.525  -5.389   5.009  0.00  0.00    +0.035 A 
ATOM     15  C   UNL     1       1.753  -5.459   5.653  0.00  0.00    +0.025 A 
ATOM     16  C   UNL     1       2.901  -5.068   4.992  0.00  0.00    +0.022 A 
ATOM     17  C   UNL     1       2.828  -4.612   3.687  0.00  0.00    +0.045 A 
ATOM     18 CL   UNL     1       4.274  -4.128   2.856  0.00  0.00    -0.083 Cl
BRANCH  12  19
ATOM     19  C   UNL     1       1.529  -4.035   1.626  0.00  0.00    +0.121 C 
BRANCH  19  24
ATOM     20  C   UNL     1       2.706  -7.677  -2.509  0.00  0.00    -0.096 C 
ATOM     21  N   UNL     1       2.102  -6.661  -1.637  0.00  0.00    +0.379 N 
ATOM     22  C   UNL     1       3.026  -5.529  -1.491  0.00  0.00    -0.064 C 
ATOM     23  C   UNL     1       2.389  -4.462  -0.597  0.00  0.00    +0.066 C 
ATOM     24  N   UNL     1       2.090  -5.045   0.718  0.00  0.00    -0.302 NA
ATOM     25  C   UNL     1       1.186  -6.195   0.586  0.00  0.00    +0.066 C 
ATOM     26  C   UNL     1       1.832  -7.248  -0.317  0.00  0.00    -0.064 C 
ATOM     27  H   UNL     1       1.237  -6.339  -2.044  0.00  0.00    -0.082 HD
ENDBRANCH  19  24
ENDBRANCH  12  19
ENDBRANCH   1  14
BRANCH   6  28
ATOM     28  O   UNL     1      -2.282  -5.811  12.633  0.00  0.00    -0.455 OA
BRANCH  28  29
ATOM     29  C   UNL     1      -2.206  -7.044  13.194  0.00  0.00    +0.141 A 
ATOM     30  C   UNL     1      -1.554  -8.087  12.549  0.00  0.00    +0.066 A 
ATOM     31  C   UNL     1      -1.498  -9.330  13.154  0.00  0.00    +0.117 A 
ATOM     32  N   UNL     1      -2.049  -9.551  14.330  0.00  0.00    -0.237 NA
ATOM     33  C   UNL     1      -2.685  -8.594  14.996  0.00  0.00    +0.142 A 
ATOM     34  C   UNL     1      -2.779  -7.303  14.448  0.00  0.00    +0.061 A 
ATOM     35  C   UNL     1      -3.522  -6.498  15.418  0.00  0.00    +0.032 A 
ATOM     36  C   UNL     1      -3.816  -7.306  16.450  0.00  0.00    +0.085 A 
ATOM     37  N   UNL     1      -3.330  -8.564  16.209  0.00  0.00    -0.346 N 
ATOM     38  H   UNL     1      -3.420  -9.319  16.811  0.00  0.00    +0.167 HD
ENDBRANCH  28  29
ENDBRANCH   6  28
TORSDOF 5
