REMARK  Name = CHEMBL223999
REMARK  8 active torsions:
REMARK  status: ('A' for Active; 'I' for Inactive)
REMARK    1  A    between atoms: C_1  and  N_2
REMARK    2  A    between atoms: C_5  and  C_8
REMARK    3  A    between atoms: C_8  and  C_9
REMARK    4  A    between atoms: C_21  and  C_22
REMARK    5  A    between atoms: C_24  and  C_27
REMARK    6  A    between atoms: C_28  and  C_29
REMARK    7  A    between atoms: C_29  and  O_30
REMARK    8  A    between atoms: O_30  and  C_31
REMARK                            x       y       z     vdW  Elec       q    Type
REMARK                         _______ _______ _______ _____ _____    ______ ____
ROOT
ATOM      1  C   UNL     1       0.117  -4.701   2.234  0.00  0.00    -0.047 A 
ATOM      2  C   UNL     1       1.490  -4.854   2.300  0.00  0.00    +0.004 A 
ATOM      3  C   UNL     1       2.080  -5.375   3.432  0.00  0.00    +0.010 A 
ATOM      4  C   UNL     1       1.287  -5.750   4.520  0.00  0.00    +0.004 A 
ATOM      5  C   UNL     1      -0.096  -5.591   4.443  0.00  0.00    -0.034 A 
ATOM      6  C   UNL     1      -0.675  -5.065   3.310  0.00  0.00    +0.008 A 
ATOM      7  C   UNL     1      -0.668  -6.078   5.752  0.00  0.00    +0.075 C 
ATOM      8  C   UNL     1       0.514  -6.526   6.576  0.00  0.00    +0.010 A 
ATOM      9  C   UNL     1       1.640  -6.325   5.837  0.00  0.00    +0.070 A 
ATOM     10  N   UNL     1       2.702  -6.735   6.594  0.00  0.00    -0.276 N 
ATOM     11  H   UNL     1       3.635  -6.712   6.329  0.00  0.00    +0.189 HD
ATOM     12  N   UNL     1       2.207  -7.195   7.820  0.00  0.00    -0.173 NA
ATOM     13  C   UNL     1       0.896  -7.071   7.812  0.00  0.00    +0.097 A 
ENDROOT
BRANCH  13  14
ATOM     14  C   UNL     1      -0.020  -7.442   8.920  0.00  0.00    +0.011 A 
ATOM     15  C   UNL     1       0.252  -8.537   9.726  0.00  0.00    +0.034 A 
ATOM     16  C   UNL     1      -0.620  -8.843  10.736  0.00  0.00    +0.063 A 
ATOM     17  S   UNL     1      -1.858  -7.569  10.562  0.00  0.00    -0.088 S 
ATOM     18  C   UNL     1      -1.147  -6.707   9.170  0.00  0.00    +0.056 A 
BRANCH  16  19
ATOM     19  C   UNL     1      -0.555  -9.910  11.688  0.00  0.00    -0.056 C 
ATOM     20  C   UNL     1      -0.502 -10.786  12.468  0.00  0.00    -0.056 C 
BRANCH  20  21
ATOM     21  C   UNL     1      -0.435 -11.883  13.447  0.00  0.00    +0.318 C 
BRANCH  21  22
ATOM     22  O   UNL     1      -1.566 -11.814  14.318  0.00  0.00    -0.480 OA
BRANCH  22  23
ATOM     23  C   UNL     1      -1.657 -12.763  15.287  0.00  0.00    +0.122 A 
ATOM     24  C   UNL     1      -0.676 -13.736  15.401  0.00  0.00    +0.046 A 
ATOM     25  C   UNL     1      -0.770 -14.699  16.387  0.00  0.00    +0.004 A 
ATOM     26  C   UNL     1      -1.843 -14.693  17.260  0.00  0.00    +0.000 A 
ATOM     27  C   UNL     1      -2.822 -13.724  17.148  0.00  0.00    +0.004 A 
ATOM     28  C   UNL     1      -2.729 -12.755  16.168  0.00  0.00    +0.046 A 
ENDBRANCH  22  23
ENDBRANCH  21  22
ENDBRANCH  20  21
ENDBRANCH  16  19
ENDBRANCH  13  14
BRANCH   1  29
ATOM     29  C   UNL     1      -0.518  -4.130   0.992  0.00  0.00    +0.038 C 
BRANCH  29  34
ATOM     30  C   UNL     1      -0.018   1.465   0.010  0.00  0.00    -0.096 C 
ATOM     31  N   UNL     1       0.002  -0.004   0.002  0.00  0.00    +0.378 N 
ATOM     32  C   UNL     1      -1.376  -0.511   0.004  0.00  0.00    -0.079 C 
ATOM     33  C   UNL     1      -1.361  -2.038  -0.087  0.00  0.00    -0.015 C 
ATOM     34  C   UNL     1      -0.605  -2.608   1.117  0.00  0.00    -0.010 C 
ATOM     35  C   UNL     1       0.807  -2.015   1.147  0.00  0.00    -0.015 C 
ATOM     36  C   UNL     1       0.712  -0.489   1.192  0.00  0.00    -0.079 C 
ATOM     37  H   UNL     1       0.477  -0.328  -0.827  0.00  0.00    -0.082 HD
ENDBRANCH  29  34
ENDBRANCH   1  29
TORSDOF 7
