REMARK  Name = CHEMBL204700
REMARK  6 active torsions:
REMARK  status: ('A' for Active; 'I' for Inactive)
REMARK    1  A    between atoms: C_6  and  N_7
REMARK    2  A    between atoms: N_10  and  C_13
REMARK    3  A    between atoms: C_13  and  C_14
REMARK    4  A    between atoms: C_14  and  C_15
REMARK    5  A    between atoms: C_15  and  N_16
REMARK    6  A    between atoms: C_26  and  C_28
REMARK                            x       y       z     vdW  Elec       q    Type
REMARK                         _______ _______ _______ _____ _____    ______ ____
ROOT
ATOM      1  N   UNL     1      -1.127  -0.811   0.012  0.00  0.00    -0.319 N 
ATOM      2  C   UNL     1      -1.098  -2.267   0.226  0.00  0.00    +0.088 C 
ATOM      3  C   UNL     1      -2.100  -2.616   1.331  0.00  0.00    -0.060 C 
ATOM      4  N   UNL     1      -3.422  -2.082   0.978  0.00  0.00    +0.382 N 
ATOM      5  C   UNL     1      -3.374  -0.615   0.937  0.00  0.00    -0.060 C 
ATOM      6  C   UNL     1      -2.435  -0.166  -0.182  0.00  0.00    +0.088 C 
ATOM      7  H   UNL     1      -3.694  -2.434   0.072  0.00  0.00    -0.082 HD
ENDROOT
BRANCH   1  13
ATOM      8  C   UNL     1      -0.003   1.322   0.001  0.00  0.00    +0.087 A 
ATOM      9  C   UNL     1       1.199   2.022  -0.011  0.00  0.00    +0.129 A 
ATOM     10  N   UNL     1       2.343   1.340  -0.025  0.00  0.00    -0.220 NA
ATOM     11  C   UNL     1       2.345   0.023  -0.026  0.00  0.00    +0.225 A 
ATOM     12  N   UNL     1       1.228  -0.676  -0.015  0.00  0.00    -0.221 NA
ATOM     13  C   UNL     1       0.043  -0.069  -0.001  0.00  0.00    +0.126 A 
ATOM     14  N   UNL     1       1.207   3.410  -0.011  0.00  0.00    -0.279 N 
ATOM     15  C   UNL     1       2.403   4.095   0.085  0.00  0.00    +0.165 A 
ATOM     16  N   UNL     1       3.628   3.602   0.089  0.00  0.00    -0.232 NA
ATOM     17  C   UNL     1       4.678   4.380   0.187  0.00  0.00    +0.139 A 
ATOM     18  C   UNL     1       4.430   5.741   0.285  0.00  0.00    +0.110 A 
ATOM     19  S   UNL     1       2.645   5.755   0.216  0.00  0.00    -0.042 S 
ATOM     20  H   UNL     1       0.372   3.900  -0.077  0.00  0.00    +0.155 HD
BRANCH  18  21
ATOM     21  C   UNL     1       5.349   6.833   0.403  0.00  0.00    +0.108 C 
ATOM     22  N   UNL     1       6.078   7.699   0.497  0.00  0.00    -0.190 NA
ENDBRANCH  18  21
ENDBRANCH   1  13
BRANCH   4  23
ATOM     23  C   UNL     1      -4.405  -2.510   1.982  0.00  0.00    -0.080 C 
BRANCH  23  24
ATOM     24  C   UNL     1      -5.803  -2.061   1.551  0.00  0.00    -0.037 C 
BRANCH  24  25
ATOM     25  C   UNL     1      -6.827  -2.507   2.596  0.00  0.00    -0.080 C 
BRANCH  25  26
ATOM     26  N   UNL     1      -8.169  -2.076   2.183  0.00  0.00    +0.383 N 
ATOM     27  C   UNL     1      -8.232  -0.608   2.179  0.00  0.00    -0.050 C 
ATOM     28  C   UNL     1      -9.631  -0.162   1.747  0.00  0.00    +0.141 C 
ATOM     29  O   UNL     1     -10.601  -0.727   2.633  0.00  0.00    -0.383 OA
ATOM     30  C   UNL     1     -10.563  -2.156   2.689  0.00  0.00    +0.141 C 
ATOM     31  C   UNL     1      -9.165  -2.606   3.123  0.00  0.00    -0.050 C 
ATOM     32  H   UNL     1      -8.363  -2.424   1.255  0.00  0.00    -0.082 HD
ENDBRANCH  25  26
ENDBRANCH  24  25
ENDBRANCH  23  24
ENDBRANCH   4  23
TORSDOF 6
