REMARK  Name = CHEMBL243912
REMARK  8 active torsions:
REMARK  status: ('A' for Active; 'I' for Inactive)
REMARK    1  A    between atoms: C_1  and  O_2
REMARK    2  A    between atoms: O_2  and  C_3
REMARK    3  A    between atoms: C_3  and  N_5
REMARK    4  A    between atoms: C_11  and  S_16
REMARK    5  A    between atoms: S_16  and  C_17
REMARK    6  A    between atoms: C_20  and  N_23
REMARK    7  A    between atoms: N_26  and  C_27
REMARK    8  A    between atoms: C_29  and  C_34
REMARK                            x       y       z     vdW  Elec       q    Type
REMARK                         _______ _______ _______ _____ _____    ______ ____
ROOT
ATOM      1  C   UNL     1       4.799  -5.468   7.967  0.00  0.00    +0.013 A 
ATOM      2  C   UNL     1       4.290  -6.333   7.005  0.00  0.00    +0.017 A 
ATOM      3  C   UNL     1       4.430  -7.697   7.161  0.00  0.00    +0.024 A 
ATOM      4  C   UNL     1       5.078  -8.206   8.279  0.00  0.00    +0.035 A 
ATOM      5  C   UNL     1       5.586  -7.343   9.241  0.00  0.00    +0.024 A 
ATOM      6  C   UNL     1       5.452  -5.978   9.083  0.00  0.00    +0.017 A 
ENDROOT
BRANCH   4   7
ATOM      7  N   UNL     1       5.219  -9.592   8.437  0.00  0.00    -0.269 N 
ATOM      8  C   UNL     1       5.168 -10.138   9.668  0.00  0.00    +0.308 C 
ATOM      9  O   UNL     1       4.903  -9.444  10.631  0.00  0.00    -0.252 OA
ATOM     10  N   UNL     1       5.412 -11.453   9.832  0.00  0.00    -0.267 N 
ATOM     11  H   UNL     1       5.353 -10.157   7.660  0.00  0.00    +0.156 HD
ATOM     12  H   UNL     1       5.681 -11.995   9.074  0.00  0.00    +0.156 HD
BRANCH  10  13
ATOM     13  C   UNL     1       5.278 -12.038  11.098  0.00  0.00    +0.071 A 
ATOM     14  C   UNL     1       5.419 -11.263  12.241  0.00  0.00    +0.038 A 
ATOM     15  C   UNL     1       5.285 -11.843  13.488  0.00  0.00    +0.057 A 
ATOM     16  C   UNL     1       5.011 -13.193  13.599  0.00  0.00    +0.015 A 
ATOM     17  C   UNL     1       4.869 -13.970  12.464  0.00  0.00    +0.041 A 
ATOM     18  C   UNL     1       4.996 -13.395  11.212  0.00  0.00    +0.145 A 
ATOM     19  F   UNL     1       4.852 -14.152  10.102  0.00  0.00    -0.204 F 
BRANCH  15  20
ATOM     20  C   UNL     1       5.439 -11.001  14.728  0.00  0.00    +0.417 C 
ATOM     21  F   UNL     1       4.194 -10.479  15.095  0.00  0.00    -0.166 F 
ATOM     22  F   UNL     1       5.938 -11.792  15.769  0.00  0.00    -0.166 F 
ATOM     23  F   UNL     1       6.328  -9.952  14.473  0.00  0.00    -0.166 F 
ENDBRANCH  15  20
ENDBRANCH  10  13
ENDBRANCH   4   7
BRANCH   1  24
ATOM     24  S   UNL     1       4.620  -3.727   7.769  0.00  0.00    -0.089 S 
BRANCH  24  31
ATOM     25  N   UNL     1      -2.073  -4.525  11.148  0.00  0.00    -0.109 NA
ATOM     26  C   UNL     1      -0.974  -4.120  10.522  0.00  0.00    +0.201 A 
ATOM     27  N   UNL     1       0.095  -4.905  10.220  0.00  0.00    -0.326 N 
ATOM     28  H   UNL     1       0.183  -5.849  10.424  0.00  0.00    +0.169 HD
ATOM     29  C   UNL     1       1.042  -4.121   9.567  0.00  0.00    +0.066 A 
ATOM     30  C   UNL     1       2.296  -4.394   9.044  0.00  0.00    +0.042 A 
ATOM     31  C   UNL     1       3.026  -3.383   8.435  0.00  0.00    +0.015 A 
ATOM     32  C   UNL     1       2.500  -2.098   8.350  0.00  0.00    +0.017 A 
ATOM     33  C   UNL     1       1.252  -1.822   8.870  0.00  0.00    +0.029 A 
ATOM     34  C   UNL     1       0.517  -2.829   9.480  0.00  0.00    +0.065 A 
ATOM     35  N   UNL     1      -0.742  -2.857  10.078  0.00  0.00    -0.326 N 
ATOM     36  H   UNL     1      -1.347  -2.103  10.163  0.00  0.00    +0.169 HD
BRANCH  25  37
ATOM     37  C   UNL     1      -2.146  -5.769  11.632  0.00  0.00    +0.427 C 
ATOM     38  O   UNL     1      -1.244  -6.559  11.419  0.00  0.00    -0.224 OA
BRANCH  37  40
ATOM     39  C   UNL     1      -3.232  -7.493  12.843  0.00  0.00    +0.282 C 
ATOM     40  O   UNL     1      -3.220  -6.149  12.357  0.00  0.00    -0.452 OA
ENDBRANCH  37  40
ENDBRANCH  25  37
ENDBRANCH  24  31
ENDBRANCH   1  24
TORSDOF 7
