REMARK  Name = CHEMBL390735
REMARK  7 active torsions:
REMARK  status: ('A' for Active; 'I' for Inactive)
REMARK    1  A    between atoms: C_1  and  N_2
REMARK    2  A    between atoms: C_8  and  C_10
REMARK    3  A    between atoms: C_22  and  C_23
REMARK    4  A    between atoms: C_25  and  C_28
REMARK    5  A    between atoms: C_29  and  C_30
REMARK    6  A    between atoms: C_30  and  O_31
REMARK    7  A    between atoms: O_31  and  C_32
REMARK                            x       y       z     vdW  Elec       q    Type
REMARK                         _______ _______ _______ _____ _____    ______ ____
ROOT
ATOM      1  C   UNL     1      -0.073  -4.313   2.573  0.00  0.00    +0.037 A 
ATOM      2  C   UNL     1       1.193  -3.801   2.873  0.00  0.00    +0.014 A 
ATOM      3  C   UNL     1       1.971  -4.400   3.821  0.00  0.00    +0.011 A 
ATOM      4  C   UNL     1       1.508  -5.532   4.501  0.00  0.00    +0.004 A 
ATOM      5  C   UNL     1       0.243  -6.043   4.203  0.00  0.00    -0.033 A 
ATOM      6  C   UNL     1      -0.545  -5.440   3.253  0.00  0.00    +0.017 A 
ATOM      7  C   UNL     1       0.034  -7.247   5.089  0.00  0.00    +0.075 C 
ATOM      8  C   UNL     1       1.291  -7.371   5.915  0.00  0.00    +0.010 A 
ATOM      9  C   UNL     1       2.132  -6.361   5.554  0.00  0.00    +0.070 A 
ATOM     10  N   UNL     1       3.265  -6.486   6.309  0.00  0.00    -0.276 N 
ATOM     11  H   UNL     1       4.042  -5.907   6.272  0.00  0.00    +0.189 HD
ATOM     12  N   UNL     1       3.105  -7.597   7.147  0.00  0.00    -0.173 NA
ATOM     13  C   UNL     1       1.924  -8.128   6.913  0.00  0.00    +0.097 A 
ENDROOT
BRANCH   1  21
ATOM     14  C   UNL     1       0.609  -4.359  -3.616  0.00  0.00    +0.105 C 
ATOM     15  N   UNL     1       0.394  -3.715  -2.313  0.00  0.00    -0.302 NA
ATOM     16  C   UNL     1       1.133  -4.414  -1.252  0.00  0.00    +0.103 C 
ATOM     17  C   UNL     1       1.031  -3.612   0.050  0.00  0.00    +0.123 C 
ATOM     18  N   UNL     1      -0.391  -3.369   0.338  0.00  0.00    -0.295 N 
ATOM     19  C   UNL     1      -1.229  -2.796  -0.726  0.00  0.00    +0.123 C 
ATOM     20  C   UNL     1      -1.038  -3.630  -1.997  0.00  0.00    +0.103 C 
ATOM     21  C   UNL     1      -0.911  -3.662   1.546  0.00  0.00    +0.247 C 
ATOM     22  O   UNL     1      -2.071  -3.391   1.791  0.00  0.00    -0.270 OA
ENDBRANCH   1  21
BRANCH  13  23
ATOM     23  C   UNL     1       1.358  -9.324   7.588  0.00  0.00    +0.011 A 
ATOM     24  C   UNL     1       2.178 -10.374   7.970  0.00  0.00    +0.034 A 
ATOM     25  C   UNL     1       1.614 -11.456   8.590  0.00  0.00    +0.063 A 
ATOM     26  S   UNL     1      -0.111 -11.001   8.645  0.00  0.00    -0.088 S 
ATOM     27  C   UNL     1       0.017  -9.408   7.851  0.00  0.00    +0.056 A 
BRANCH  25  28
ATOM     28  C   UNL     1       2.245 -12.648   9.071  0.00  0.00    -0.056 C 
ATOM     29  C   UNL     1       2.764 -13.625   9.465  0.00  0.00    -0.056 C 
BRANCH  29  30
ATOM     30  C   UNL     1       3.413 -14.850   9.959  0.00  0.00    +0.318 C 
BRANCH  30  31
ATOM     31  O   UNL     1       2.429 -15.710  10.538  0.00  0.00    -0.480 OA
BRANCH  31  32
ATOM     32  C   UNL     1       2.866 -16.893  11.046  0.00  0.00    +0.122 A 
ATOM     33  C   UNL     1       4.214 -17.216  10.993  0.00  0.00    +0.046 A 
ATOM     34  C   UNL     1       4.656 -18.419  11.511  0.00  0.00    +0.004 A 
ATOM     35  C   UNL     1       3.755 -19.300  12.080  0.00  0.00    +0.000 A 
ATOM     36  C   UNL     1       2.411 -18.980  12.133  0.00  0.00    +0.004 A 
ATOM     37  C   UNL     1       1.965 -17.776  11.623  0.00  0.00    +0.046 A 
ENDBRANCH  31  32
ENDBRANCH  30  31
ENDBRANCH  29  30
ENDBRANCH  25  28
ENDBRANCH  13  23
TORSDOF 6
