REMARK  Name = CHEMBL241682
REMARK  8 active torsions:
REMARK  status: ('A' for Active; 'I' for Inactive)
REMARK    1  A    between atoms: C_3  and  C_11
REMARK    2  A    between atoms: C_5  and  S_7
REMARK    3  A    between atoms: S_7  and  N_10
REMARK    4  A    between atoms: C_14  and  N_41
REMARK    5  A    between atoms: C_19  and  C_20
REMARK    6  A    between atoms: C_23  and  N_26
REMARK    7  A    between atoms: N_29  and  C_30
REMARK    8  A    between atoms: C_32  and  C_37
REMARK                            x       y       z     vdW  Elec       q    Type
REMARK                         _______ _______ _______ _____ _____    ______ ____
ROOT
ATOM      1  C   UNL     1       3.299   2.651   0.300  0.00  0.00    +0.043 A 
ATOM      2  C   UNL     1       4.208   2.486   1.337  0.00  0.00    +0.125 A 
ATOM      3  N   UNL     1       5.343   3.162   1.371  0.00  0.00    -0.239 NA
ATOM      4  C   UNL     1       5.676   4.027   0.425  0.00  0.00    +0.128 A 
ATOM      5  C   UNL     1       4.818   4.253  -0.656  0.00  0.00    +0.068 A 
ATOM      6  C   UNL     1       3.605   3.553  -0.733  0.00  0.00    +0.148 A 
ATOM      7  O   UNL     1       2.978   3.943  -1.855  0.00  0.00    -0.462 OA
ATOM      8  C   UNL     1       3.706   4.855  -2.525  0.00  0.00    +0.205 A 
ATOM      9  C   UNL     1       4.853   5.110  -1.853  0.00  0.00    +0.031 A 
ENDROOT
BRANCH   1  12
ATOM     10  C   UNL     1      -0.358   1.820   0.051  0.00  0.00    +0.002 A 
ATOM     11  C   UNL     1       0.819   2.539   0.070  0.00  0.00    +0.009 A 
ATOM     12  C   UNL     1       2.031   1.883   0.279  0.00  0.00    -0.011 A 
ATOM     13  C   UNL     1       2.046   0.502   0.469  0.00  0.00    +0.037 A 
ATOM     14  C   UNL     1       0.862  -0.207   0.449  0.00  0.00    +0.106 A 
ATOM     15  C   UNL     1      -0.338   0.450   0.240  0.00  0.00    +0.028 A 
BRANCH  14  16
ATOM     16  S   UNL     1       0.879  -1.953   0.688  0.00  0.00    +0.056 S 
ATOM     17  O   UNL     1      -0.303  -2.457   0.081  0.00  0.00    -0.153 OA
ATOM     18  O   UNL     1       2.176  -2.401   0.318  0.00  0.00    -0.153 OA
BRANCH  16  19
ATOM     19  N   UNL     1       0.730  -2.226   2.314  0.00  0.00    -0.204 NA
ATOM     20  H   UNL     1       0.295  -3.033   2.633  0.00  0.00    +0.144 HD
ATOM     21  H   UNL     1       1.076  -1.579   2.948  0.00  0.00    +0.144 HD
ENDBRANCH  16  19
ENDBRANCH  14  16
ENDBRANCH   1  12
BRANCH   9  22
ATOM     22  C   UNL     1       5.930   6.050  -2.248  0.00  0.00    -0.014 A 
ATOM     23  C   UNL     1       6.426   6.971  -1.326  0.00  0.00    +0.010 A 
ATOM     24  C   UNL     1       7.428   7.843  -1.696  0.00  0.00    +0.024 A 
ATOM     25  C   UNL     1       7.943   7.805  -2.986  0.00  0.00    +0.035 A 
ATOM     26  C   UNL     1       7.450   6.888  -3.906  0.00  0.00    +0.024 A 
ATOM     27  C   UNL     1       6.452   6.011  -3.540  0.00  0.00    +0.010 A 
BRANCH  25  28
ATOM     28  N   UNL     1       8.959   8.692  -3.359  0.00  0.00    -0.269 N 
ATOM     29  C   UNL     1       9.888   9.070  -2.458  0.00  0.00    +0.308 C 
ATOM     30  O   UNL     1       9.898   8.571  -1.349  0.00  0.00    -0.252 OA
ATOM     31  N   UNL     1      10.804  10.002  -2.785  0.00  0.00    -0.267 N 
ATOM     32  H   UNL     1       8.996   9.034  -4.266  0.00  0.00    +0.156 HD
ATOM     33  H   UNL     1      10.756  10.449  -3.645  0.00  0.00    +0.156 HD
BRANCH  31  34
ATOM     34  C   UNL     1      11.827  10.326  -1.885  0.00  0.00    +0.071 A 
ATOM     35  C   UNL     1      11.593  10.270  -0.518  0.00  0.00    +0.038 A 
ATOM     36  C   UNL     1      12.604  10.590   0.368  0.00  0.00    +0.057 A 
ATOM     37  C   UNL     1      13.848  10.965  -0.104  0.00  0.00    +0.015 A 
ATOM     38  C   UNL     1      14.085  11.023  -1.465  0.00  0.00    +0.041 A 
ATOM     39  C   UNL     1      13.080  10.698  -2.358  0.00  0.00    +0.145 A 
ATOM     40  F   UNL     1      13.314  10.748  -3.688  0.00  0.00    -0.204 F 
BRANCH  36  41
ATOM     41  C   UNL     1      12.350  10.529   1.853  0.00  0.00    +0.417 C 
ATOM     42  F   UNL     1      12.657   9.250   2.327  0.00  0.00    -0.166 F 
ATOM     43  F   UNL     1      13.153  11.473   2.502  0.00  0.00    -0.166 F 
ATOM     44  F   UNL     1      11.003  10.810   2.107  0.00  0.00    -0.166 F 
ENDBRANCH  36  41
ENDBRANCH  31  34
ENDBRANCH  25  28
ENDBRANCH   9  22
BRANCH   4  45
ATOM     45  N   UNL     1       6.879   4.712   0.507  0.00  0.00    -0.343 N 
ATOM     46  H   UNL     1       7.475   4.556   1.256  0.00  0.00    +0.144 HD
ATOM     47  H   UNL     1       7.125   5.346  -0.185  0.00  0.00    +0.144 HD
ENDBRANCH   4  45
TORSDOF 8
