REMARK  Name = CHEMBL231168
REMARK  12 active torsions:
REMARK  status: ('A' for Active; 'I' for Inactive)
REMARK    1  A    between atoms: C_1  and  N_2
REMARK    2  A    between atoms: C_3  and  C_5
REMARK    3  A    between atoms: C_7  and  O_11
REMARK    4  A    between atoms: O_11  and  C_12
REMARK    5  A    between atoms: N_21  and  C_22
REMARK    6  A    between atoms: C_25  and  C_34
REMARK    7  A    between atoms: C_26  and  O_28
REMARK    8  A    between atoms: O_28  and  C_29
REMARK    9  A    between atoms: C_29  and  C_30
REMARK   10  A    between atoms: C_30  and  N_31
REMARK   11  A    between atoms: N_31  and  C_32
REMARK   12  A    between atoms: N_31  and  C_33
REMARK                            x       y       z     vdW  Elec       q    Type
REMARK                         _______ _______ _______ _____ _____    ______ ____
ROOT
ATOM      1  C   UNL     1      -1.812  -7.146   0.155  0.00  0.00    +0.131 A 
ATOM      2  C   UNL     1      -3.119  -6.708  -0.036  0.00  0.00    +0.048 A 
ATOM      3  C   UNL     1      -4.158  -7.611  -0.078  0.00  0.00    +0.033 A 
ATOM      4  C   UNL     1      -3.900  -8.975   0.073  0.00  0.00    +0.091 A 
ATOM      5  C   UNL     1      -2.579  -9.414   0.266  0.00  0.00    +0.071 A 
ATOM      6  C   UNL     1      -1.542  -8.495   0.301  0.00  0.00    +0.074 A 
ATOM      7  N   UNL     1      -2.644 -10.793   0.380  0.00  0.00    -0.326 N 
ATOM      8  C   UNL     1      -3.958 -11.148   0.258  0.00  0.00    +0.198 A 
ATOM      9  N   UNL     1      -4.693 -10.080   0.078  0.00  0.00    -0.214 NA
ATOM     10  N   UNL     1      -4.439 -12.442   0.315  0.00  0.00    -0.285 N 
ATOM     11  H   UNL     1      -3.838 -13.173   0.528  0.00  0.00    +0.155 HD
ATOM     12  H   UNL     1      -1.896 -11.394   0.520  0.00  0.00    +0.169 HD
ENDROOT
BRANCH  10  13
ATOM     13  C   UNL     1      -5.790 -12.697   0.066  0.00  0.00    +0.037 A 
ATOM     14  C   UNL     1      -6.520 -11.843  -0.752  0.00  0.00    +0.024 A 
ATOM     15  C   UNL     1      -7.855 -12.096  -0.999  0.00  0.00    +0.018 A 
ATOM     16  C   UNL     1      -8.469 -13.197  -0.432  0.00  0.00    +0.096 A 
ATOM     17  C   UNL     1      -7.746 -14.053   0.386  0.00  0.00    +0.134 A 
ATOM     18  C   UNL     1      -6.404 -13.806   0.631  0.00  0.00    +0.069 A 
BRANCH  16  19
ATOM     19  C   UNL     1      -9.927 -13.468  -0.703  0.00  0.00    +0.421 C 
ATOM     20  F   UNL     1     -10.437 -12.476  -1.547  0.00  0.00    -0.166 F 
ATOM     21  F   UNL     1     -10.062 -14.718  -1.317  0.00  0.00    -0.166 F 
ATOM     22  F   UNL     1     -10.634 -13.462   0.504  0.00  0.00    -0.166 F 
ENDBRANCH  16  19
BRANCH  17  23
ATOM     23  O   UNL     1      -8.351 -15.135   0.942  0.00  0.00    -0.493 OA
BRANCH  23  24
ATOM     24  C   UNL     1      -7.545 -15.973   1.774  0.00  0.00    +0.210 C 
BRANCH  24  25
ATOM     25  C   UNL     1      -8.393 -17.130   2.306  0.00  0.00    -0.038 C 
BRANCH  25  26
ATOM     26  N   UNL     1      -8.835 -17.969   1.184  0.00  0.00    +0.378 N 
ATOM     27  C   UNL     1      -7.670 -18.629   0.578  0.00  0.00    -0.096 C 
ATOM     28  C   UNL     1      -9.774 -18.987   1.674  0.00  0.00    -0.096 C 
ATOM     29  H   UNL     1      -9.293 -17.394   0.493  0.00  0.00    -0.082 HD
ENDBRANCH  25  26
ENDBRANCH  24  25
ENDBRANCH  23  24
ENDBRANCH  17  23
ENDBRANCH  10  13
BRANCH   1  30
ATOM     30  O   UNL     1      -0.796  -6.244   0.194  0.00  0.00    -0.456 OA
BRANCH  30  33
ATOM     31  C   UNL     1      -1.331  -4.862   3.527  0.00  0.00    +0.129 A 
ATOM     32  C   UNL     1      -1.536  -5.625   2.382  0.00  0.00    +0.079 A 
ATOM     33  C   UNL     1      -0.632  -5.516   1.329  0.00  0.00    +0.132 A 
ATOM     34  C   UNL     1       0.444  -4.644   1.467  0.00  0.00    +0.066 A 
ATOM     35  C   UNL     1       0.581  -3.918   2.637  0.00  0.00    +0.115 A 
ATOM     36  N   UNL     1      -0.293  -4.038   3.614  0.00  0.00    -0.250 NA
BRANCH  31  39
ATOM     37  C   UNL     1      -3.034  -4.328   6.887  0.00  0.00    +0.128 C 
ATOM     38  N   UNL     1      -2.093  -4.226   5.769  0.00  0.00    -0.313 N 
ATOM     39  C   UNL     1      -2.283  -4.966   4.658  0.00  0.00    +0.262 C 
ATOM     40  O   UNL     1      -3.234  -5.718   4.585  0.00  0.00    -0.269 OA
ATOM     41  H   UNL     1      -1.334  -3.625   5.827  0.00  0.00    +0.149 HD
ENDBRANCH  31  39
ENDBRANCH  30  33
ENDBRANCH   1  30
TORSDOF 9
