REMARK  Name = CHEMBL221736
REMARK  1 active torsions:
REMARK  status: ('A' for Active; 'I' for Inactive)
REMARK    1  A    between atoms: C_8  and  C_13
REMARK                            x       y       z     vdW  Elec       q    Type
REMARK                         _______ _______ _______ _____ _____    ______ ____
ROOT
ATOM      1  C   UNL     1      -0.016   1.361   0.009  0.00  0.00    +0.001 A 
ATOM      2  C   UNL     1       1.169   2.083   0.002  0.00  0.00    +0.002 A 
ATOM      3  C   UNL     1       2.385   1.435  -0.013  0.00  0.00    +0.026 A 
ATOM      4  C   UNL     1       2.431   0.043  -0.021  0.00  0.00    +0.049 A 
ATOM      5  C   UNL     1       1.228  -0.686  -0.013  0.00  0.00    -0.001 A 
ATOM      6  C   UNL     1       0.002  -0.004   0.002  0.00  0.00    +0.010 A 
ATOM      7  C   UNL     1       1.257  -2.104  -0.021  0.00  0.00    +0.025 A 
ATOM      8  C   UNL     1       2.476  -2.749  -0.035  0.00  0.00    +0.063 A 
ATOM      9  C   UNL     1       3.709  -1.954  -0.043  0.00  0.00    +0.258 A 
ATOM     10  O   UNL     1       4.792  -2.512  -0.056  0.00  0.00    -0.267 OA
ATOM     11  N   UNL     1       3.647  -0.609  -0.035  0.00  0.00    -0.322 N 
ATOM     12  H   UNL     1       4.467  -0.092  -0.040  0.00  0.00    +0.169 HD
ENDROOT
BRANCH   8  13
ATOM     13  C   UNL     1       2.539  -4.224  -0.043  0.00  0.00    +0.053 A 
ATOM     14  C   UNL     1       2.108  -5.032   0.961  0.00  0.00    +0.036 A 
ATOM     15  C   UNL     1       2.358  -6.408   0.537  0.00  0.00    +0.000 A 
ATOM     16  C   UNL     1       2.137  -7.657   1.125  0.00  0.00    +0.010 A 
ATOM     17  C   UNL     1       2.491  -8.794   0.455  0.00  0.00    +0.001 A 
ATOM     18  C   UNL     1       3.070  -8.719  -0.805  0.00  0.00    +0.002 A 
ATOM     19  C   UNL     1       3.297  -7.498  -1.403  0.00  0.00    +0.026 A 
ATOM     20  C   UNL     1       2.945  -6.327  -0.741  0.00  0.00    +0.047 A 
ATOM     21  N   UNL     1       3.037  -4.992  -1.070  0.00  0.00    -0.354 N 
ATOM     22  H   UNL     1       3.402  -4.646  -1.899  0.00  0.00    +0.166 HD
ENDBRANCH   8  13
TORSDOF 1
