REMARK  Name = CHEMBL243915
REMARK  8 active torsions:
REMARK  status: ('A' for Active; 'I' for Inactive)
REMARK    1  A    between atoms: C_1  and  O_2
REMARK    2  A    between atoms: O_2  and  C_3
REMARK    3  A    between atoms: N_5  and  C_6
REMARK    4  A    between atoms: C_10  and  O_15
REMARK    5  A    between atoms: O_15  and  C_16
REMARK    6  A    between atoms: C_19  and  N_22
REMARK    7  A    between atoms: N_25  and  C_26
REMARK    8  A    between atoms: C_28  and  C_33
REMARK                            x       y       z     vdW  Elec       q    Type
REMARK                         _______ _______ _______ _____ _____    ______ ____
ROOT
ATOM      1  C   UNL     1       4.312  -2.689  -7.671  0.00  0.00    +0.129 A 
ATOM      2  C   UNL     1       3.926  -1.559  -6.964  0.00  0.00    +0.048 A 
ATOM      3  C   UNL     1       4.097  -0.306  -7.518  0.00  0.00    +0.027 A 
ATOM      4  C   UNL     1       4.655  -0.176  -8.783  0.00  0.00    +0.035 A 
ATOM      5  C   UNL     1       5.040  -1.307  -9.490  0.00  0.00    +0.027 A 
ATOM      6  C   UNL     1       4.874  -2.559  -8.933  0.00  0.00    +0.048 A 
ENDROOT
BRANCH   4   7
ATOM      7  N   UNL     1       4.828   1.095  -9.346  0.00  0.00    -0.269 N 
ATOM      8  C   UNL     1       5.151   2.142  -8.560  0.00  0.00    +0.308 C 
ATOM      9  O   UNL     1       5.208   2.002  -7.354  0.00  0.00    -0.252 OA
ATOM     10  N   UNL     1       5.410   3.344  -9.112  0.00  0.00    -0.267 N 
ATOM     11  H   UNL     1       4.715   1.223 -10.301  0.00  0.00    +0.156 HD
ATOM     12  H   UNL     1       5.303   3.472 -10.067  0.00  0.00    +0.156 HD
BRANCH  10  13
ATOM     13  C   UNL     1       5.835   4.408  -8.305  0.00  0.00    +0.071 A 
ATOM     14  C   UNL     1       5.490   4.442  -6.961  0.00  0.00    +0.038 A 
ATOM     15  C   UNL     1       5.910   5.492  -6.168  0.00  0.00    +0.057 A 
ATOM     16  C   UNL     1       6.673   6.510  -6.711  0.00  0.00    +0.015 A 
ATOM     17  C   UNL     1       7.019   6.480  -8.050  0.00  0.00    +0.041 A 
ATOM     18  C   UNL     1       6.607   5.428  -8.848  0.00  0.00    +0.145 A 
ATOM     19  F   UNL     1       6.950   5.396 -10.154  0.00  0.00    -0.204 F 
BRANCH  15  20
ATOM     20  C   UNL     1       5.535   5.530  -4.709  0.00  0.00    +0.417 C 
ATOM     21  F   UNL     1       6.518   4.876  -3.958  0.00  0.00    -0.166 F 
ATOM     22  F   UNL     1       5.435   6.860  -4.287  0.00  0.00    -0.166 F 
ATOM     23  F   UNL     1       4.306   4.888  -4.527  0.00  0.00    -0.166 F 
ENDBRANCH  15  20
ENDBRANCH  10  13
ENDBRANCH   4   7
BRANCH   1  24
ATOM     24  O   UNL     1       4.144  -3.922  -7.125  0.00  0.00    -0.455 OA
BRANCH  24  29
ATOM     25  C   UNL     1       2.857  -4.798  -1.552  0.00  0.00    +0.146 A 
ATOM     26  C   UNL     1       3.928  -4.897  -2.381  0.00  0.00    +0.136 A 
ATOM     27  N   UNL     1       3.507  -4.516  -3.628  0.00  0.00    -0.301 N 
ATOM     28  C   UNL     1       4.152  -4.424  -4.829  0.00  0.00    +0.139 A 
ATOM     29  C   UNL     1       3.489  -4.010  -5.936  0.00  0.00    +0.145 A 
ATOM     30  C   UNL     1       2.125  -3.671  -5.858  0.00  0.00    +0.051 A 
ATOM     31  C   UNL     1       1.476  -3.761  -4.666  0.00  0.00    +0.050 A 
ATOM     32  C   UNL     1       2.181  -4.192  -3.525  0.00  0.00    +0.140 A 
ATOM     33  N   UNL     1       1.807  -4.375  -2.264  0.00  0.00    -0.213 NA
BRANCH  25  36
ATOM     34  C   UNL     1       3.982  -5.515   0.422  0.00  0.00    +0.405 C 
ATOM     35  O   UNL     1       5.005  -5.636  -0.222  0.00  0.00    -0.226 OA
ATOM     36  N   UNL     1       2.852  -5.095  -0.180  0.00  0.00    -0.234 N 
ATOM     37  H   UNL     1       2.035  -4.997   0.334  0.00  0.00    +0.160 HD
BRANCH  34  39
ATOM     38  C   UNL     1       5.209  -6.239   2.312  0.00  0.00    +0.282 C 
ATOM     39  O   UNL     1       3.976  -5.800   1.738  0.00  0.00    -0.453 OA
ENDBRANCH  34  39
ENDBRANCH  25  36
ENDBRANCH  24  29
ENDBRANCH   1  24
TORSDOF 7
