REMARK  Name = CHEMBL445062
REMARK  9 active torsions:
REMARK  status: ('A' for Active; 'I' for Inactive)
REMARK    1  A    between atoms: C_1  and  N_2
REMARK    2  A    between atoms: N_2  and  C_3
REMARK    3  A    between atoms: N_2  and  C_4
REMARK    4  A    between atoms: C_4  and  C_5
REMARK    5  A    between atoms: C_5  and  C_6
REMARK    6  A    between atoms: C_6  and  O_7
REMARK    7  A    between atoms: O_7  and  C_8
REMARK    8  A    between atoms: C_11  and  C_14
REMARK    9  A    between atoms: C_18  and  C_23
REMARK                            x       y       z     vdW  Elec       q    Type
REMARK                         _______ _______ _______ _____ _____    ______ ____
ROOT
ATOM      1  C   UNL     1      -3.980  -4.622  -0.243  0.00  0.00    +0.121 A 
ATOM      2  C   UNL     1      -5.151  -3.885  -0.138  0.00  0.00    +0.046 A 
ATOM      3  C   UNL     1      -6.373  -4.524  -0.145  0.00  0.00    +0.012 A 
ATOM      4  C   UNL     1      -6.432  -5.912  -0.259  0.00  0.00    -0.015 A 
ATOM      5  C   UNL     1      -5.254  -6.649  -0.364  0.00  0.00    +0.012 A 
ATOM      6  C   UNL     1      -4.035  -6.004  -0.362  0.00  0.00    +0.046 A 
ENDROOT
BRANCH   4   7
ATOM      7  C   UNL     1      -7.745  -6.603  -0.266  0.00  0.00    +0.018 A 
ATOM      8  C   UNL     1      -8.577  -6.569   0.874  0.00  0.00    +0.123 A 
ATOM      9  N   UNL     1      -9.736  -7.181   0.862  0.00  0.00    -0.235 NA
ATOM     10  C   UNL     1     -10.153  -7.846  -0.222  0.00  0.00    +0.163 A 
ATOM     11  C   UNL     1     -11.319  -8.570  -0.494  0.00  0.00    +0.046 A 
ATOM     12  C   UNL     1     -11.213  -9.053  -1.801  0.00  0.00    +0.145 A 
ATOM     13  N   UNL     1     -10.067  -8.660  -2.307  0.00  0.00    -0.173 NA
ATOM     14  N   UNL     1      -9.377  -7.905  -1.352  0.00  0.00    -0.221 N 
ATOM     15  C   UNL     1      -8.166  -7.275  -1.379  0.00  0.00    +0.124 A 
BRANCH  11  16
ATOM     16  C   UNL     1     -12.458  -8.785   0.433  0.00  0.00    -0.006 A 
ATOM     17  C   UNL     1     -13.765  -8.543   0.022  0.00  0.00    +0.016 A 
ATOM     18  C   UNL     1     -14.776  -8.751   0.896  0.00  0.00    +0.046 A 
ATOM     19  S   UNL     1     -13.908  -9.305   2.354  0.00  0.00    -0.104 S 
ATOM     20  C   UNL     1     -12.246  -9.231   1.707  0.00  0.00    +0.053 A 
ENDBRANCH  11  16
ENDBRANCH   4   7
BRANCH   1  21
ATOM     21  O   UNL     1      -2.777  -3.990  -0.236  0.00  0.00    -0.492 OA
BRANCH  21  22
ATOM     22  C   UNL     1      -2.794  -2.566  -0.111  0.00  0.00    +0.227 C 
BRANCH  22  23
ATOM     23  C   UNL     1      -1.358  -2.037  -0.122  0.00  0.00    +0.022 C 
BRANCH  23  24
ATOM     24  C   UNL     1      -1.376  -0.512   0.012  0.00  0.00    -0.076 C 
BRANCH  24  26
ATOM     25  C   UNL     1      -0.018   1.465   0.010  0.00  0.00    -0.097 C 
ATOM     26  N   UNL     1       0.002  -0.004   0.002  0.00  0.00    +0.376 N 
ATOM     27  C   UNL     1       0.713  -0.491   1.192  0.00  0.00    -0.097 C 
ATOM     28  H   UNL     1       0.474  -0.330  -0.828  0.00  0.00    -0.083 HD
ENDBRANCH  24  26
ENDBRANCH  23  24
ENDBRANCH  22  23
ENDBRANCH  21  22
ENDBRANCH   1  21
TORSDOF 7
