REMARK  Name = CHEMBL245377
REMARK  9 active torsions:
REMARK  status: ('A' for Active; 'I' for Inactive)
REMARK    1  A    between atoms: C_1  and  N_2
REMARK    2  A    between atoms: N_5  and  C_8
REMARK    3  A    between atoms: C_8  and  C_9
REMARK    4  A    between atoms: N_11  and  C_12
REMARK    5  A    between atoms: C_24  and  C_25
REMARK    6  A    between atoms: C_27  and  C_30
REMARK    7  A    between atoms: C_31  and  C_32
REMARK    8  A    between atoms: C_32  and  O_33
REMARK    9  A    between atoms: O_33  and  C_34
REMARK                            x       y       z     vdW  Elec       q    Type
REMARK                         _______ _______ _______ _____ _____    ______ ____
ROOT
ATOM      1  C   UNL     1       0.568  -6.284   3.967  0.00  0.00    +0.038 A 
ATOM      2  C   UNL     1       0.978  -5.401   4.959  0.00  0.00    +0.023 A 
ATOM      3  C   UNL     1       1.545  -5.883   6.124  0.00  0.00    +0.002 A 
ATOM      4  C   UNL     1       1.709  -7.240   6.311  0.00  0.00    +0.010 A 
ATOM      5  C   UNL     1       1.300  -8.137   5.320  0.00  0.00    +0.005 A 
ATOM      6  C   UNL     1       0.725  -7.646   4.150  0.00  0.00    -0.013 A 
ATOM      7  C   UNL     1       0.387  -8.840   3.290  0.00  0.00    +0.077 C 
ATOM      8  C   UNL     1       0.818 -10.050   4.082  0.00  0.00    +0.010 A 
ATOM      9  C   UNL     1       1.355  -9.615   5.255  0.00  0.00    +0.070 A 
ATOM     10  N   UNL     1       1.744 -10.720   5.959  0.00  0.00    -0.276 N 
ATOM     11  N   UNL     1       1.450 -11.850   5.187  0.00  0.00    -0.173 NA
ATOM     12  H   UNL     1       2.152 -10.720   6.839  0.00  0.00    +0.189 HD
ATOM     13  C   UNL     1       0.884 -11.453   4.067  0.00  0.00    +0.097 A 
ENDROOT
BRANCH  13  14
ATOM     14  C   UNL     1       0.417 -12.335   2.967  0.00  0.00    +0.011 A 
ATOM     15  C   UNL     1       1.090 -13.509   2.669  0.00  0.00    +0.034 A 
ATOM     16  C   UNL     1       0.624 -14.292   1.647  0.00  0.00    +0.063 A 
ATOM     17  S   UNL     1      -0.794 -13.368   1.082  0.00  0.00    -0.088 S 
ATOM     18  C   UNL     1      -0.689 -12.006   2.231  0.00  0.00    +0.056 A 
BRANCH  16  19
ATOM     19  C   UNL     1       1.143 -15.534   1.158  0.00  0.00    -0.056 C 
ATOM     20  C   UNL     1       1.567 -16.552   0.756  0.00  0.00    -0.056 C 
BRANCH  20  21
ATOM     21  C   UNL     1       2.100 -17.829   0.253  0.00  0.00    +0.318 C 
BRANCH  21  22
ATOM     22  O   UNL     1       1.290 -18.289  -0.831  0.00  0.00    -0.480 OA
BRANCH  22  23
ATOM     23  C   UNL     1       1.647 -19.463  -1.413  0.00  0.00    +0.122 A 
ATOM     24  C   UNL     1       2.752 -20.162  -0.948  0.00  0.00    +0.046 A 
ATOM     25  C   UNL     1       3.113 -21.356  -1.541  0.00  0.00    +0.004 A 
ATOM     26  C   UNL     1       2.375 -21.855  -2.599  0.00  0.00    +0.000 A 
ATOM     27  C   UNL     1       1.274 -21.160  -3.065  0.00  0.00    +0.004 A 
ATOM     28  C   UNL     1       0.905 -19.969  -2.471  0.00  0.00    +0.046 A 
ENDBRANCH  22  23
ENDBRANCH  21  22
ENDBRANCH  20  21
ENDBRANCH  16  19
ENDBRANCH  13  14
BRANCH   1  31
ATOM     29  C   UNL     1       0.416  -4.629   2.264  0.00  0.00    +0.231 C 
ATOM     30  O   UNL     1       1.237  -3.961   2.857  0.00  0.00    -0.274 OA
ATOM     31  N   UNL     1      -0.007  -5.797   2.787  0.00  0.00    -0.284 N 
ATOM     32  H   UNL     1      -0.709  -6.300   2.346  0.00  0.00    +0.155 HD
BRANCH  29  33
ATOM     33  C   UNL     1      -0.130  -4.154   0.943  0.00  0.00    +0.180 C 
BRANCH  33  38
ATOM     34  C   UNL     1       2.470   0.243  -1.435  0.00  0.00    -0.096 C 
ATOM     35  N   UNL     1       1.870  -1.064  -1.136  0.00  0.00    +0.379 N 
ATOM     36  C   UNL     1       0.439  -0.892  -0.854  0.00  0.00    -0.064 C 
ATOM     37  C   UNL     1      -0.191  -2.256  -0.561  0.00  0.00    +0.066 C 
ATOM     38  N   UNL     1       0.484  -2.865   0.594  0.00  0.00    -0.298 NA
ATOM     39  C   UNL     1       1.922  -3.021   0.336  0.00  0.00    +0.066 C 
ATOM     40  C   UNL     1       2.534  -1.651   0.035  0.00  0.00    -0.064 C 
ATOM     41  H   UNL     1       1.985  -1.676  -1.930  0.00  0.00    -0.082 HD
ENDBRANCH  33  38
ENDBRANCH  29  33
ENDBRANCH   1  31
TORSDOF 8
