REMARK  Name = CHEMBL207600
REMARK  3 active torsions:
REMARK  status: ('A' for Active; 'I' for Inactive)
REMARK    1  A    between atoms: C_1  and  N_2
REMARK    2  A    between atoms: C_4  and  C_14
REMARK    3  A    between atoms: C_16  and  C_21
REMARK                            x       y       z     vdW  Elec       q    Type
REMARK                         _______ _______ _______ _____ _____    ______ ____
ROOT
ATOM      1  C   UNL     1      -0.551   1.440  -0.038  0.00  0.00    +0.149 C 
ATOM      2  N   UNL     1      -0.284   0.000  -0.038  0.00  0.00    -0.349 N 
ATOM      3  C   UNL     1      -0.325  -0.782  -1.128  0.00  0.00    +0.094 A 
ATOM      4  C   UNL     1      -0.022  -2.090  -0.772  0.00  0.00    +0.001 A 
ATOM      5  C   UNL     1       0.222  -2.070   0.686  0.00  0.00    +0.011 A 
ATOM      6  C   UNL     1       0.049  -0.736   1.084  0.00  0.00    +0.053 A 
ATOM      7  C   UNL     1       0.221  -0.396   2.422  0.00  0.00    +0.076 A 
ATOM      8  C   UNL     1       0.563  -1.365   3.346  0.00  0.00    +0.168 A 
ATOM      9  C   UNL     1       0.739  -2.691   2.944  0.00  0.00    +0.167 A 
ATOM     10  C   UNL     1       0.562  -3.043   1.620  0.00  0.00    +0.060 A 
ATOM     11  O   UNL     1       1.071  -3.438   4.039  0.00  0.00    -0.453 OA
ATOM     12  C   UNL     1       1.497  -2.490   5.035  0.00  0.00    +0.466 C 
ATOM     13  O   UNL     1       0.785  -1.286   4.691  0.00  0.00    -0.453 OA
ENDROOT
BRANCH   4  14
ATOM     14  C   UNL     1       0.039  -3.205  -1.624  0.00  0.00    +0.025 C 
ATOM     15  C   UNL     1       0.542  -3.067  -2.920  0.00  0.00    +0.073 C 
ATOM     16  C   UNL     1       0.544  -4.061  -4.009  0.00  0.00    +0.125 C 
ATOM     17  N   UNL     1       1.128  -3.463  -5.033  0.00  0.00    -0.143 NA
ATOM     18  N   UNL     1       1.480  -2.267  -4.740  0.00  0.00    -0.105 NA
ATOM     19  C   UNL     1       1.169  -1.934  -3.505  0.00  0.00    +0.298 C 
ATOM     20  O   UNL     1       1.405  -0.739  -2.905  0.00  0.00    -0.264 OA
BRANCH  16  21
ATOM     21  C   UNL     1       0.007  -5.438  -3.965  0.00  0.00    +0.110 A 
ATOM     22  C   UNL     1       0.094  -6.261  -5.091  0.00  0.00    +0.140 A 
ATOM     23  N   UNL     1      -0.387  -7.489  -5.045  0.00  0.00    -0.260 NA
ATOM     24  C   UNL     1      -0.950  -7.940  -3.937  0.00  0.00    +0.130 A 
ATOM     25  C   UNL     1      -1.039  -7.129  -2.819  0.00  0.00    +0.131 A 
ATOM     26  N   UNL     1      -0.556  -5.900  -2.851  0.00  0.00    -0.250 NA
ENDBRANCH  16  21
ENDBRANCH   4  14
TORSDOF 2
