REMARK  Name = CHEMBL176019
REMARK  6 active torsions:
REMARK  status: ('A' for Active; 'I' for Inactive)
REMARK    1  A    between atoms: C_1  and  C_2
REMARK    2  A    between atoms: C_2  and  C_3
REMARK    3  A    between atoms: C_2  and  N_4
REMARK    4  A    between atoms: N_4  and  C_5
REMARK    5  A    between atoms: C_5  and  C_6
REMARK    6  A    between atoms: N_19  and  C_20
REMARK                            x       y       z     vdW  Elec       q    Type
REMARK                         _______ _______ _______ _____ _____    ______ ____
ROOT
ATOM      1  N   UNL     1      -1.331  -0.525   0.162  0.00  0.00    -0.296 N 
ATOM      2  C   UNL     1      -2.064  -0.152   1.253  0.00  0.00    +0.180 A 
ATOM      3  N   UNL     1      -3.317  -0.553   1.380  0.00  0.00    -0.301 N 
ATOM      4  C   UNL     1      -4.037  -0.190   2.445  0.00  0.00    +0.204 A 
ATOM      5  N   UNL     1      -3.506   0.575   3.391  0.00  0.00    -0.161 NA
ATOM      6  C   UNL     1      -2.243   0.994   3.289  0.00  0.00    +0.351 A 
ATOM      7  N   UNL     1      -1.503   0.630   2.221  0.00  0.00    -0.280 N 
ATOM      8  O   UNL     1      -1.758   1.696   4.160  0.00  0.00    -0.245 OA
ATOM      9  N   UNL     1      -5.340  -0.613   2.562  0.00  0.00    -0.285 N 
ATOM     10  H   UNL     1      -5.709  -1.232   1.913  0.00  0.00    +0.155 HD
ATOM     11  H   UNL     1      -0.583   0.926   2.140  0.00  0.00    +0.173 HD
ATOM     12  H   UNL     1      -3.717  -1.112   0.696  0.00  0.00    +0.171 HD
ENDROOT
BRANCH   9  13
ATOM     13  C   UNL     1      -6.133  -0.151   3.619  0.00  0.00    +0.035 A 
ATOM     14  C   UNL     1      -7.079  -0.987   4.210  0.00  0.00    +0.025 A 
ATOM     15  C   UNL     1      -7.861  -0.564   5.237  0.00  0.00    +0.031 A 
ATOM     16  C   UNL     1      -7.744   0.751   5.746  0.00  0.00    +0.078 A 
ATOM     17  C   UNL     1      -6.778   1.578   5.128  0.00  0.00    +0.041 A 
ATOM     18  C   UNL     1      -5.984   1.145   4.094  0.00  0.00    +0.040 A 
ATOM     19  S   UNL     1      -6.946   3.096   6.036  0.00  0.00    -0.075 S 
ATOM     20  C   UNL     1      -8.244   2.553   7.139  0.00  0.00    +0.157 A 
ATOM     21  N   UNL     1      -8.441   1.322   6.753  0.00  0.00    -0.247 NA
ENDBRANCH   9  13
BRANCH   1  23
ATOM     22  C   UNL     1      -0.040   1.543  -0.030  0.00  0.00    +0.028 C 
ATOM     23  C   UNL     1       0.017   0.014  -0.034  0.00  0.00    +0.070 C 
ATOM     24  C   UNL     1       0.927  -0.466   1.098  0.00  0.00    +0.028 C 
ENDBRANCH   1  23
BRANCH   1  25
ATOM     25  C   UNL     1      -1.893  -1.463  -0.812  0.00  0.00    +0.143 C 
BRANCH  25  26
ATOM     26  C   UNL     1      -1.544  -2.873  -0.411  0.00  0.00    -0.030 A 
ATOM     27  C   UNL     1      -0.375  -3.452  -0.867  0.00  0.00    +0.005 A 
ATOM     28  C   UNL     1      -0.055  -4.746  -0.499  0.00  0.00    +0.000 A 
ATOM     29  C   UNL     1      -0.904  -5.460   0.325  0.00  0.00    +0.000 A 
ATOM     30  C   UNL     1      -2.073  -4.881   0.782  0.00  0.00    +0.000 A 
ATOM     31  C   UNL     1      -2.391  -3.586   0.417  0.00  0.00    +0.005 A 
ENDBRANCH  25  26
ENDBRANCH   1  25
TORSDOF 4
