REMARK  Name = CHEMBL602703
REMARK  10 active torsions:
REMARK  status: ('A' for Active; 'I' for Inactive)
REMARK    1  A    between atoms: C_1  and  N_2
REMARK    2  A    between atoms: C_4  and  C_7
REMARK    3  A    between atoms: C_12  and  O_16
REMARK    4  A    between atoms: O_16  and  C_17
REMARK    5  A    between atoms: C_20  and  N_24
REMARK    6  A    between atoms: N_24  and  C_25
REMARK    7  A    between atoms: C_25  and  C_26
REMARK    8  A    between atoms: C_25  and  C_36
REMARK    9  A    between atoms: C_26  and  C_27
REMARK   10  A    between atoms: N_29  and  C_30
REMARK                            x       y       z     vdW  Elec       q    Type
REMARK                         _______ _______ _______ _____ _____    ______ ____
ROOT
ATOM      1  C   UNL     1       0.470  -5.856  -7.382  0.00  0.00    +0.164 A 
ATOM      2  C   UNL     1       0.369  -7.099  -6.776  0.00  0.00    +0.051 A 
ATOM      3  C   UNL     1       0.292  -8.241  -7.549  0.00  0.00    +0.027 A 
ATOM      4  C   UNL     1       0.317  -8.146  -8.934  0.00  0.00    +0.031 A 
ATOM      5  C   UNL     1       0.418  -6.902  -9.542  0.00  0.00    +0.065 A 
ATOM      6  C   UNL     1       0.489  -5.758  -8.768  0.00  0.00    +0.167 A 
ATOM      7  F   UNL     1       0.582  -4.547  -9.358  0.00  0.00    -0.202 F 
ENDROOT
BRANCH   4   8
ATOM      8  N   UNL     1       0.240  -9.303  -9.717  0.00  0.00    -0.333 N 
ATOM      9  H   UNL     1       0.170 -10.172  -9.292  0.00  0.00    +0.147 HD
BRANCH   8  10
ATOM     10  C   UNL     1       0.266  -9.202 -11.178  0.00  0.00    +0.184 C 
BRANCH  10  11
ATOM     11  C   UNL     1      -1.149  -8.934 -11.696  0.00  0.00    +0.408 C 
ATOM     12  F   UNL     1      -1.625  -7.736 -11.154  0.00  0.00    -0.169 F 
ATOM     13  F   UNL     1      -1.124  -8.838 -13.092  0.00  0.00    -0.169 F 
ATOM     14  F   UNL     1      -1.991  -9.985 -11.316  0.00  0.00    -0.169 F 
ENDBRANCH  10  11
BRANCH  10  15
ATOM     15  C   UNL     1       0.787 -10.513 -11.771  0.00  0.00    +0.127 C 
BRANCH  15  16
ATOM     16  C   UNL     1       2.222 -10.715 -11.360  0.00  0.00    +0.219 C 
ATOM     17  O   UNL     1       2.775  -9.891 -10.661  0.00  0.00    -0.275 OA
ATOM     18  N   UNL     1       2.893 -11.810 -11.768  0.00  0.00    -0.285 N 
ATOM     19  H   UNL     1       2.476 -12.432 -12.385  0.00  0.00    +0.155 HD
BRANCH  18  20
ATOM     20  C   UNL     1       4.189 -12.052 -11.301  0.00  0.00    +0.033 A 
ATOM     21  C   UNL     1       5.125 -12.660 -12.128  0.00  0.00    +0.023 A 
ATOM     22  C   UNL     1       6.404 -12.897 -11.665  0.00  0.00    +0.002 A 
ATOM     23  C   UNL     1       6.754 -12.529 -10.379  0.00  0.00    +0.000 A 
ATOM     24  C   UNL     1       5.825 -11.923  -9.553  0.00  0.00    +0.002 A 
ATOM     25  C   UNL     1       4.546 -11.678 -10.012  0.00  0.00    +0.023 A 
ENDBRANCH  18  20
ENDBRANCH  15  16
ENDBRANCH  10  15
ENDBRANCH   8  10
ENDBRANCH   4   8
BRANCH   1  26
ATOM     26  O   UNL     1       0.545  -4.732  -6.620  0.00  0.00    -0.452 OA
BRANCH  26  32
ATOM     27  C   UNL     1      -0.435  -0.856  -3.856  0.00  0.00    +0.040 A 
ATOM     28  C   UNL     1      -1.653  -1.147  -4.380  0.00  0.00    +0.046 A 
ATOM     29  C   UNL     1      -1.799  -2.235  -5.260  0.00  0.00    +0.082 A 
ATOM     30  C   UNL     1      -0.615  -2.957  -5.528  0.00  0.00    +0.080 A 
ATOM     31  S   UNL     1       0.616  -2.106  -4.575  0.00  0.00    -0.082 S 
ATOM     32  C   UNL     1      -0.603  -4.051  -6.374  0.00  0.00    +0.146 A 
ATOM     33  C   UNL     1      -1.806  -4.432  -6.966  0.00  0.00    +0.067 A 
ATOM     34  C   UNL     1      -2.943  -3.698  -6.677  0.00  0.00    +0.115 A 
ATOM     35  N   UNL     1      -2.926  -2.666  -5.872  0.00  0.00    -0.254 NA
BRANCH  27  39
ATOM     36  C   UNL     1       2.147   2.205  -0.860  0.00  0.00    +0.149 C 
ATOM     37  N   UNL     1       1.063   1.570  -1.614  0.00  0.00    -0.341 N 
ATOM     38  C   UNL     1       1.175   0.481  -2.431  0.00  0.00    +0.113 A 
ATOM     39  C   UNL     1      -0.069   0.231  -2.923  0.00  0.00    +0.071 A 
ATOM     40  N   UNL     1      -0.908   1.155  -2.409  0.00  0.00    -0.345 N 
ATOM     41  C   UNL     1      -0.239   1.952  -1.624  0.00  0.00    +0.174 A 
ATOM     42  H   UNL     1      -1.859   1.214  -2.592  0.00  0.00    +0.167 HD
ENDBRANCH  27  39
ENDBRANCH  26  32
ENDBRANCH   1  26
TORSDOF 9
