REMARK  Name = CHEMBL13983
REMARK  7 active torsions:
REMARK  status: ('A' for Active; 'I' for Inactive)
REMARK    1  A    between atoms: C_1  and  C_2
REMARK    2  A    between atoms: C_3  and  C_20
REMARK    3  A    between atoms: C_6  and  C_19
REMARK    4  A    between atoms: C_7  and  C_8
REMARK    5  A    between atoms: N_10  and  C_11
REMARK    6  A    between atoms: C_11  and  C_12
REMARK    7  A    between atoms: N_15  and  C_18
REMARK                            x       y       z     vdW  Elec       q    Type
REMARK                         _______ _______ _______ _____ _____    ______ ____
ROOT
ATOM      1  C   UNL     1      -0.415   1.414   0.042  0.00  0.00    +0.047 C 
ATOM      2  C   UNL     1      -0.121  -0.063   0.008  0.00  0.00    -0.013 A 
ATOM      3  C   UNL     1       0.058  -0.841  -1.119  0.00  0.00    +0.044 A 
ATOM      4  N   UNL     1       0.305  -2.135  -0.709  0.00  0.00    -0.358 N 
ATOM      5  H   UNL     1       0.468  -2.889  -1.298  0.00  0.00    +0.166 HD
ATOM      6  C   UNL     1       0.286  -2.186   0.633  0.00  0.00    +0.026 A 
ATOM      7  C   UNL     1       0.030  -0.917   1.121  0.00  0.00    +0.060 A 
ATOM      8  C   UNL     1       0.513  -3.419   1.469  0.00  0.00    +0.064 C 
ENDROOT
BRANCH   3   9
ATOM      9  C   UNL     1      -0.003  -0.391  -2.456  0.00  0.00    +0.039 C 
ATOM     10  C   UNL     1      -0.501  -1.220  -3.441  0.00  0.00    +0.048 C 
ATOM     11  C   UNL     1      -0.495  -0.986  -4.903  0.00  0.00    +0.011 A 
ATOM     12  C   UNL     1      -0.027   0.054  -5.700  0.00  0.00    +0.048 A 
ATOM     13  C   UNL     1      -0.170  -0.018  -7.072  0.00  0.00    +0.124 A 
ATOM     14  C   UNL     1      -0.777  -1.122  -7.651  0.00  0.00    +0.040 A 
ATOM     15  C   UNL     1      -1.244  -2.158  -6.867  0.00  0.00    +0.027 A 
ATOM     16  C   UNL     1      -1.109  -2.103  -5.484  0.00  0.00    +0.042 A 
ATOM     17  N   UNL     1      -1.485  -2.991  -4.482  0.00  0.00    -0.281 N 
ATOM     18  C   UNL     1      -1.147  -2.528  -3.266  0.00  0.00    +0.249 C 
ATOM     19  O   UNL     1      -1.345  -3.092  -2.205  0.00  0.00    -0.270 OA
ATOM     20  F   UNL     1       0.282   0.989  -7.851  0.00  0.00    -0.205 F 
ATOM     21  H   UNL     1      -1.929  -3.839  -4.641  0.00  0.00    +0.155 HD
ENDBRANCH   3   9
BRANCH   7  22
ATOM     22  C   UNL     1      -0.069  -0.530   2.540  0.00  0.00    +0.246 C 
ATOM     23  O   UNL     1      -1.143  -0.574   3.109  0.00  0.00    -0.270 OA
ATOM     24  N   UNL     1       1.031  -0.126   3.207  0.00  0.00    -0.311 N 
ATOM     25  H   UNL     1       1.887  -0.090   2.753  0.00  0.00    +0.149 HD
BRANCH  24  26
ATOM     26  C   UNL     1       0.932   0.259   4.617  0.00  0.00    +0.108 C 
BRANCH  26  27
ATOM     27  C   UNL     1       2.313   0.673   5.130  0.00  0.00    +0.003 C 
ATOM     28  C   UNL     1       3.249  -0.538   5.115  0.00  0.00    -0.014 C 
ATOM     29  C   UNL     1       4.604  -0.137   5.704  0.00  0.00    -0.079 C 
ATOM     30  N   UNL     1       4.423   0.327   7.084  0.00  0.00    +0.378 N 
ATOM     31  C   UNL     1       3.584   1.532   7.100  0.00  0.00    -0.079 C 
ATOM     32  C   UNL     1       2.191   1.194   6.565  0.00  0.00    -0.014 C 
ATOM     33  C   UNL     1       5.734   0.638   7.670  0.00  0.00    -0.096 C 
ATOM     34  H   UNL     1       3.978  -0.399   7.626  0.00  0.00    -0.082 HD
ENDBRANCH  26  27
ENDBRANCH  24  26
ENDBRANCH   7  22
TORSDOF 4
