REMARK  Name = CHEMBL199191
REMARK  11 active torsions:
REMARK  status: ('A' for Active; 'I' for Inactive)
REMARK    1  A    between atoms: C_1  and  C_2
REMARK    2  A    between atoms: C_2  and  N_3
REMARK    3  A    between atoms: N_3  and  C_4
REMARK    4  A    between atoms: N_3  and  C_6
REMARK    5  A    between atoms: C_4  and  C_5
REMARK    6  A    between atoms: C_6  and  C_7
REMARK    7  A    between atoms: C_7  and  N_8
REMARK    8  A    between atoms: C_9  and  C_11
REMARK    9  A    between atoms: C_12  and  C_30
REMARK   10  A    between atoms: C_13  and  C_18
REMARK   11  A    between atoms: C_16  and  C_17
REMARK                            x       y       z     vdW  Elec       q    Type
REMARK                         _______ _______ _______ _____ _____    ______ ____
ROOT
ATOM      1  C   UNL     1      -3.318  -6.008   0.552  0.00  0.00    +0.060 A 
ATOM      2  C   UNL     1      -3.131  -6.697   1.769  0.00  0.00    -0.013 A 
ATOM      3  C   UNL     1      -2.865  -8.013   1.447  0.00  0.00    +0.044 A 
ATOM      4  N   UNL     1      -2.889  -8.129   0.072  0.00  0.00    -0.358 N 
ATOM      5  H   UNL     1      -2.735  -8.947  -0.425  0.00  0.00    +0.166 HD
ATOM      6  C   UNL     1      -3.166  -6.930  -0.468  0.00  0.00    +0.026 A 
ATOM      7  C   UNL     1      -3.286  -6.638  -1.941  0.00  0.00    +0.064 C 
ATOM      8  C   UNL     1      -3.205  -6.109   3.155  0.00  0.00    +0.047 C 
ENDROOT
BRANCH   3   9
ATOM      9  C   UNL     1      -2.614  -9.058   2.363  0.00  0.00    +0.039 C 
ATOM     10  C   UNL     1      -1.720 -10.059   2.039  0.00  0.00    +0.049 C 
ATOM     11  C   UNL     1      -1.441 -11.297   2.799  0.00  0.00    +0.030 A 
ATOM     12  C   UNL     1      -1.935 -11.826   3.988  0.00  0.00    +0.052 A 
ATOM     13  C   UNL     1      -1.433 -13.046   4.418  0.00  0.00    +0.142 A 
ATOM     14  C   UNL     1      -0.469 -13.685   3.655  0.00  0.00    +0.151 A 
ATOM     15  N   UNL     1      -0.019 -13.160   2.534  0.00  0.00    -0.237 NA
ATOM     16  C   UNL     1      -0.464 -11.996   2.075  0.00  0.00    +0.133 A 
ATOM     17  N   UNL     1      -0.137 -11.271   0.939  0.00  0.00    -0.266 N 
ATOM     18  C   UNL     1      -0.844 -10.132   0.862  0.00  0.00    +0.250 C 
ATOM     19  O   UNL     1      -0.770  -9.302  -0.028  0.00  0.00    -0.270 OA
ATOM     20  F   UNL     1      -1.878 -13.603   5.566  0.00  0.00    -0.204 F 
ATOM     21  H   UNL     1       0.517 -11.553   0.281  0.00  0.00    +0.157 HD
ENDBRANCH   3   9
BRANCH   1  23
ATOM     22  N   UNL     1      -2.624  -3.680   0.280  0.00  0.00    -0.313 N 
ATOM     23  C   UNL     1      -3.625  -4.575   0.396  0.00  0.00    +0.246 C 
ATOM     24  O   UNL     1      -4.781  -4.199   0.373  0.00  0.00    -0.270 OA
ATOM     25  H   UNL     1      -1.701  -3.979   0.298  0.00  0.00    +0.149 HD
BRANCH  22  26
ATOM     26  C   UNL     1      -2.929  -2.255   0.125  0.00  0.00    +0.086 C 
BRANCH  26  27
ATOM     27  C   UNL     1      -1.624  -1.463   0.015  0.00  0.00    -0.060 C 
BRANCH  27  28
ATOM     28  N   UNL     1      -1.929  -0.054  -0.268  0.00  0.00    +0.380 N 
ATOM     29  H   UNL     1      -2.503   0.006  -1.095  0.00  0.00    -0.082 HD
BRANCH  28  31
ATOM     30  C   UNL     1      -3.077   1.957   0.528  0.00  0.00    -0.017 C 
ATOM     31  C   UNL     1      -2.650   0.529   0.872  0.00  0.00    -0.082 C 
ENDBRANCH  28  31
BRANCH  28  32
ATOM     32  C   UNL     1      -0.677   0.683  -0.484  0.00  0.00    -0.082 C 
ATOM     33  C   UNL     1       0.008   0.163  -1.749  0.00  0.00    -0.017 C 
ENDBRANCH  28  32
ENDBRANCH  27  28
ENDBRANCH  26  27
ENDBRANCH  22  26
ENDBRANCH   1  23
TORSDOF 7
