REMARK  Name = CHEMBL379896
REMARK  6 active torsions:
REMARK  status: ('A' for Active; 'I' for Inactive)
REMARK    1  A    between atoms: C_1  and  O_2
REMARK    2  A    between atoms: O_2  and  C_3
REMARK    3  A    between atoms: C_3  and  C_4
REMARK    4  A    between atoms: C_4  and  N_5
REMARK    5  A    between atoms: N_8  and  C_11
REMARK    6  A    between atoms: C_21  and  C_23
REMARK                            x       y       z     vdW  Elec       q    Type
REMARK                         _______ _______ _______ _____ _____    ______ ____
ROOT
ATOM      1  C   UNL     1       1.862  -4.144  -3.891  0.00  0.00    +0.103 A 
ATOM      2  C   UNL     1       2.001  -5.526  -3.971  0.00  0.00    +0.085 A 
ATOM      3  C   UNL     1       1.817  -6.136  -5.208  0.00  0.00    +0.129 A 
ATOM      4  N   UNL     1       1.516  -5.381  -6.263  0.00  0.00    -0.222 NA
ATOM      5  C   UNL     1       1.393  -4.074  -6.146  0.00  0.00    +0.199 A 
ATOM      6  N   UNL     1       1.555  -3.460  -4.992  0.00  0.00    -0.334 N 
ATOM      7  N   UNL     1       1.945  -7.513  -5.341  0.00  0.00    -0.279 N 
ATOM      8  C   UNL     1       1.657  -8.120  -6.548  0.00  0.00    +0.165 A 
ATOM      9  N   UNL     1       1.342  -7.548  -7.696  0.00  0.00    -0.232 NA
ATOM     10  C   UNL     1       1.093  -8.259  -8.768  0.00  0.00    +0.139 A 
ATOM     11  C   UNL     1       1.178  -9.636  -8.629  0.00  0.00    +0.110 A 
ATOM     12  S   UNL     1       1.631  -9.764  -6.906  0.00  0.00    -0.042 S 
ATOM     13  H   UNL     1       2.236  -8.047  -4.586  0.00  0.00    +0.155 HD
ATOM     14  H   UNL     1       1.452  -2.497  -4.945  0.00  0.00    +0.168 HD
ENDROOT
BRANCH   1  18
ATOM     15  N   UNL     1       1.456  -2.439  -0.157  0.00  0.00    +0.383 N 
ATOM     16  C   UNL     1       0.846  -1.831  -1.347  0.00  0.00    -0.059 C 
ATOM     17  C   UNL     1       1.762  -2.048  -2.556  0.00  0.00    +0.088 C 
ATOM     18  N   UNL     1       2.034  -3.488  -2.682  0.00  0.00    -0.320 N 
ATOM     19  C   UNL     1       2.495  -4.213  -1.488  0.00  0.00    +0.088 C 
ATOM     20  C   UNL     1       1.546  -3.894  -0.329  0.00  0.00    -0.059 C 
ATOM     21  H   UNL     1       2.382  -2.059  -0.026  0.00  0.00    -0.082 HD
BRANCH  15  22
ATOM     22  C   UNL     1       0.633  -2.136   1.022  0.00  0.00    -0.050 C 
BRANCH  22  23
ATOM     23  C   UNL     1       1.350  -2.624   2.282  0.00  0.00    +0.141 C 
BRANCH  23  25
ATOM     24  C   UNL     1       3.325  -2.287   3.597  0.00  0.00    +0.193 C 
ATOM     25  O   UNL     1       2.575  -1.906   2.442  0.00  0.00    -0.385 OA
ENDBRANCH  23  25
ENDBRANCH  22  23
ENDBRANCH  15  22
ENDBRANCH   1  18
BRANCH  11  26
ATOM     26  C   UNL     1       0.966 -10.669  -9.598  0.00  0.00    +0.108 C 
ATOM     27  N   UNL     1       0.797 -11.488 -10.367  0.00  0.00    -0.190 NA
ENDBRANCH  11  26
TORSDOF 5
