REMARK  Name = CHEMBL390353
REMARK  9 active torsions:
REMARK  status: ('A' for Active; 'I' for Inactive)
REMARK    1  A    between atoms: C_1  and  N_2
REMARK    2  A    between atoms: N_5  and  C_8
REMARK    3  A    between atoms: C_8  and  C_9
REMARK    4  A    between atoms: C_9  and  C_10
REMARK    5  A    between atoms: C_22  and  C_23
REMARK    6  A    between atoms: C_25  and  C_28
REMARK    7  A    between atoms: C_29  and  C_30
REMARK    8  A    between atoms: C_30  and  O_31
REMARK    9  A    between atoms: O_31  and  C_32
REMARK                            x       y       z     vdW  Elec       q    Type
REMARK                         _______ _______ _______ _____ _____    ______ ____
ROOT
ATOM      1  C   UNL     1      -0.093  -5.992   2.585  0.00  0.00    -0.046 A 
ATOM      2  C   UNL     1      -1.207  -6.664   3.054  0.00  0.00    +0.004 A 
ATOM      3  C   UNL     1      -1.220  -8.043   3.094  0.00  0.00    +0.010 A 
ATOM      4  C   UNL     1      -0.107  -8.764   2.659  0.00  0.00    +0.006 A 
ATOM      5  C   UNL     1       1.010  -8.079   2.189  0.00  0.00    -0.033 A 
ATOM      6  C   UNL     1       1.012  -6.700   2.148  0.00  0.00    +0.008 A 
ATOM      7  C   UNL     1       2.046  -9.103   1.795  0.00  0.00    +0.075 C 
ATOM      8  C   UNL     1       1.432 -10.451   2.078  0.00  0.00    +0.010 A 
ATOM      9  C   UNL     1       0.145 -10.226   2.594  0.00  0.00    +0.097 A 
ATOM     10  N   UNL     1      -0.404 -11.399   2.847  0.00  0.00    -0.173 NA
ATOM     11  H   UNL     1       0.369 -13.357   2.584  0.00  0.00    +0.189 HD
ATOM     12  N   UNL     1       0.512 -12.401   2.502  0.00  0.00    -0.276 N 
ATOM     13  C   UNL     1       1.639 -11.796   2.029  0.00  0.00    +0.070 A 
ENDROOT
BRANCH  13  14
ATOM     14  C   UNL     1       2.862 -12.477   1.550  0.00  0.00    +0.008 A 
ATOM     15  C   UNL     1       2.778 -13.569   0.697  0.00  0.00    +0.034 A 
ATOM     16  C   UNL     1       3.936 -14.167   0.279  0.00  0.00    +0.063 A 
ATOM     17  S   UNL     1       5.184 -13.185   1.094  0.00  0.00    -0.088 S 
ATOM     18  C   UNL     1       4.103 -12.039   1.934  0.00  0.00    +0.056 A 
BRANCH  16  19
ATOM     19  C   UNL     1       4.103 -15.293  -0.589  0.00  0.00    -0.056 C 
ATOM     20  C   UNL     1       4.241 -16.216  -1.301  0.00  0.00    -0.056 C 
BRANCH  20  21
ATOM     21  C   UNL     1       4.413 -17.374  -2.194  0.00  0.00    +0.318 C 
BRANCH  21  22
ATOM     22  O   UNL     1       5.806 -17.650  -2.352  0.00  0.00    -0.480 OA
BRANCH  22  23
ATOM     23  C   UNL     1       6.140 -18.697  -3.152  0.00  0.00    +0.122 A 
ATOM     24  C   UNL     1       5.148 -19.439  -3.776  0.00  0.00    +0.046 A 
ATOM     25  C   UNL     1       5.491 -20.502  -4.589  0.00  0.00    +0.004 A 
ATOM     26  C   UNL     1       6.821 -20.827  -4.781  0.00  0.00    +0.000 A 
ATOM     27  C   UNL     1       7.811 -20.089  -4.160  0.00  0.00    +0.004 A 
ATOM     28  C   UNL     1       7.474 -19.021  -3.351  0.00  0.00    +0.046 A 
ENDBRANCH  22  23
ENDBRANCH  21  22
ENDBRANCH  20  21
ENDBRANCH  16  19
ENDBRANCH  13  14
BRANCH   1  29
ATOM     29  C   UNL     1      -0.086  -4.485   2.544  0.00  0.00    +0.050 C 
BRANCH  29  30
ATOM     30  C   UNL     1      -0.632  -4.009   1.196  0.00  0.00    +0.089 C 
BRANCH  30  35
ATOM     31  C   UNL     1      -0.018   1.465   0.010  0.00  0.00    -0.096 C 
ATOM     32  N   UNL     1       0.002  -0.004   0.002  0.00  0.00    +0.379 N 
ATOM     33  C   UNL     1      -1.376  -0.512   0.011  0.00  0.00    -0.064 C 
ATOM     34  C   UNL     1      -1.356  -2.042  -0.017  0.00  0.00    +0.066 C 
ATOM     35  N   UNL     1      -0.624  -2.541   1.156  0.00  0.00    -0.306 NA
ATOM     36  C   UNL     1       0.750  -2.020   1.175  0.00  0.00    +0.066 C 
ATOM     37  C   UNL     1       0.713  -0.490   1.192  0.00  0.00    -0.064 C 
ATOM     38  H   UNL     1       0.475  -0.329  -0.828  0.00  0.00    -0.082 HD
ENDBRANCH  30  35
ENDBRANCH  29  30
ENDBRANCH   1  29
TORSDOF 8
