REMARK  Name = CHEMBL244289
REMARK  8 active torsions:
REMARK  status: ('A' for Active; 'I' for Inactive)
REMARK    1  A    between atoms: C_1  and  O_2
REMARK    2  A    between atoms: O_2  and  C_3
REMARK    3  A    between atoms: C_3  and  N_5
REMARK    4  A    between atoms: C_11  and  O_16
REMARK    5  A    between atoms: O_16  and  C_17
REMARK    6  A    between atoms: C_21  and  N_23
REMARK    7  A    between atoms: N_26  and  C_27
REMARK    8  A    between atoms: C_29  and  C_34
REMARK                            x       y       z     vdW  Elec       q    Type
REMARK                         _______ _______ _______ _____ _____    ______ ____
ROOT
ATOM      1  C   UNL     1       4.282  -4.848   7.256  0.00  0.00    +0.130 A 
ATOM      2  C   UNL     1       3.879  -6.027   6.643  0.00  0.00    +0.046 A 
ATOM      3  C   UNL     1       4.087  -7.240   7.272  0.00  0.00    +0.005 A 
ATOM      4  C   UNL     1       4.696  -7.283   8.511  0.00  0.00    +0.023 A 
ATOM      5  C   UNL     1       5.100  -6.107   9.129  0.00  0.00    +0.038 A 
ATOM      6  C   UNL     1       4.898  -4.888   8.497  0.00  0.00    +0.069 A 
ENDROOT
BRANCH   5   7
ATOM      7  N   UNL     1       5.716  -6.151  10.385  0.00  0.00    -0.269 N 
ATOM      8  C   UNL     1       6.528  -7.179  10.702  0.00  0.00    +0.308 C 
ATOM      9  O   UNL     1       6.805  -8.015   9.864  0.00  0.00    -0.252 OA
ATOM     10  N   UNL     1       7.033  -7.279  11.947  0.00  0.00    -0.267 N 
ATOM     11  H   UNL     1       5.559  -5.441  11.027  0.00  0.00    +0.156 HD
ATOM     12  H   UNL     1       6.768  -6.645  12.631  0.00  0.00    +0.156 HD
BRANCH  10  13
ATOM     13  C   UNL     1       7.942  -8.300  12.254  0.00  0.00    +0.071 A 
ATOM     14  C   UNL     1       7.937  -9.479  11.521  0.00  0.00    +0.038 A 
ATOM     15  C   UNL     1       8.835 -10.484  11.825  0.00  0.00    +0.057 A 
ATOM     16  C   UNL     1       9.737 -10.319  12.860  0.00  0.00    +0.015 A 
ATOM     17  C   UNL     1       9.745  -9.146  13.594  0.00  0.00    +0.041 A 
ATOM     18  C   UNL     1       8.854  -8.133  13.290  0.00  0.00    +0.145 A 
ATOM     19  F   UNL     1       8.866  -6.986  14.002  0.00  0.00    -0.204 F 
BRANCH  15  20
ATOM     20  C   UNL     1       8.830 -11.764  11.029  0.00  0.00    +0.417 C 
ATOM     21  F   UNL     1       9.698 -11.639   9.940  0.00  0.00    -0.166 F 
ATOM     22  F   UNL     1       9.251 -12.821  11.843  0.00  0.00    -0.166 F 
ATOM     23  F   UNL     1       7.535 -12.020  10.566  0.00  0.00    -0.166 F 
ENDBRANCH  15  20
ENDBRANCH  10  13
ENDBRANCH   5   7
BRANCH   1  24
ATOM     24  O   UNL     1       4.076  -3.656   6.637  0.00  0.00    -0.456 OA
BRANCH  24  31
ATOM     25  N   UNL     1       7.923   1.593   9.615  0.00  0.00    -0.109 NA
ATOM     26  C   UNL     1       7.009   0.748   9.154  0.00  0.00    +0.201 A 
ATOM     27  N   UNL     1       7.268  -0.383   8.443  0.00  0.00    -0.326 N 
ATOM     28  H   UNL     1       8.147  -0.706   8.189  0.00  0.00    +0.169 HD
ATOM     29  C   UNL     1       6.056  -0.997   8.143  0.00  0.00    +0.069 A 
ATOM     30  C   UNL     1       5.728  -2.155   7.453  0.00  0.00    +0.074 A 
ATOM     31  C   UNL     1       4.399  -2.522   7.313  0.00  0.00    +0.131 A 
ATOM     32  C   UNL     1       3.396  -1.733   7.862  0.00  0.00    +0.048 A 
ATOM     33  C   UNL     1       3.717  -0.579   8.549  0.00  0.00    +0.031 A 
ATOM     34  C   UNL     1       5.045  -0.206   8.694  0.00  0.00    +0.066 A 
ATOM     35  N   UNL     1       5.665   0.872   9.323  0.00  0.00    -0.326 N 
ATOM     36  H   UNL     1       5.216   1.588   9.798  0.00  0.00    +0.169 HD
BRANCH  25  37
ATOM     37  C   UNL     1       9.210   1.423   9.297  0.00  0.00    +0.427 C 
ATOM     38  O   UNL     1       9.557   0.443   8.663  0.00  0.00    -0.224 OA
BRANCH  37  40
ATOM     39  C   UNL     1      11.483   2.093   9.306  0.00  0.00    +0.282 C 
ATOM     40  O   UNL     1      10.126   2.338   9.680  0.00  0.00    -0.452 OA
ENDBRANCH  37  40
ENDBRANCH  25  37
ENDBRANCH  24  31
ENDBRANCH   1  24
TORSDOF 7
