REMARK  Name = CHEMBL390735
REMARK  7 active torsions:
REMARK  status: ('A' for Active; 'I' for Inactive)
REMARK    1  A    between atoms: C_1  and  N_2
REMARK    2  A    between atoms: C_8  and  C_10
REMARK    3  A    between atoms: C_22  and  C_23
REMARK    4  A    between atoms: C_25  and  C_28
REMARK    5  A    between atoms: C_29  and  C_30
REMARK    6  A    between atoms: C_30  and  O_31
REMARK    7  A    between atoms: O_31  and  C_32
REMARK                            x       y       z     vdW  Elec       q    Type
REMARK                         _______ _______ _______ _____ _____    ______ ____
ROOT
ATOM      1  C   UNL     1      -0.097  -4.205   2.770  0.00  0.00    +0.037 A 
ATOM      2  C   UNL     1       1.188  -3.712   3.008  0.00  0.00    +0.014 A 
ATOM      3  C   UNL     1       1.988  -4.300   3.960  0.00  0.00    +0.011 A 
ATOM      4  C   UNL     1       1.519  -5.395   4.692  0.00  0.00    +0.006 A 
ATOM      5  C   UNL     1       0.236  -5.886   4.453  0.00  0.00    -0.033 A 
ATOM      6  C   UNL     1      -0.569  -5.295   3.506  0.00  0.00    +0.017 A 
ATOM      7  C   UNL     1       0.010  -7.055   5.380  0.00  0.00    +0.075 C 
ATOM      8  C   UNL     1       1.278  -7.204   6.183  0.00  0.00    +0.010 A 
ATOM      9  C   UNL     1       2.166  -6.202   5.756  0.00  0.00    +0.097 A 
ATOM     10  N   UNL     1       3.281  -6.322   6.453  0.00  0.00    -0.173 NA
ATOM     11  H   UNL     1       3.804  -7.709   7.970  0.00  0.00    +0.189 HD
ATOM     12  N   UNL     1       3.137  -7.397   7.339  0.00  0.00    -0.276 N 
ATOM     13  C   UNL     1       1.894  -7.929   7.157  0.00  0.00    +0.070 A 
ENDROOT
BRANCH   1  21
ATOM     14  C   UNL     1       0.392  -4.467  -3.417  0.00  0.00    -0.096 C 
ATOM     15  N   UNL     1       0.251  -3.729  -2.154  0.00  0.00    +0.380 N 
ATOM     16  C   UNL     1       0.992  -4.428  -1.096  0.00  0.00    -0.060 C 
ATOM     17  C   UNL     1       0.942  -3.600   0.193  0.00  0.00    +0.089 C 
ATOM     18  N   UNL     1      -0.467  -3.326   0.516  0.00  0.00    -0.301 N 
ATOM     19  C   UNL     1      -1.327  -2.775  -0.542  0.00  0.00    +0.089 C 
ATOM     20  C   UNL     1      -1.170  -3.642  -1.796  0.00  0.00    -0.060 C 
ATOM     21  C   UNL     1      -0.956  -3.574   1.748  0.00  0.00    +0.247 C 
ATOM     22  O   UNL     1      -2.104  -3.277   2.017  0.00  0.00    -0.270 OA
ATOM     23  H   UNL     1       0.626  -2.799  -2.266  0.00  0.00    -0.082 HD
ENDBRANCH   1  21
BRANCH  13  24
ATOM     24  C   UNL     1       1.320  -9.082   7.886  0.00  0.00    +0.008 A 
ATOM     25  C   UNL     1       1.446  -9.182   9.265  0.00  0.00    +0.034 A 
ATOM     26  C   UNL     1       0.899 -10.265   9.897  0.00  0.00    +0.063 A 
ATOM     27  S   UNL     1       0.186 -11.176   8.538  0.00  0.00    -0.088 S 
ATOM     28  C   UNL     1       0.648 -10.070   7.215  0.00  0.00    +0.056 A 
BRANCH  26  29
ATOM     29  C   UNL     1       0.899 -10.586  11.293  0.00  0.00    -0.056 C 
ATOM     30  C   UNL     1       0.899 -10.850  12.437  0.00  0.00    -0.056 C 
BRANCH  30  31
ATOM     31  C   UNL     1       0.899 -11.180  13.871  0.00  0.00    +0.318 C 
BRANCH  31  32
ATOM     32  O   UNL     1       0.207 -12.413  14.076  0.00  0.00    -0.480 OA
BRANCH  32  33
ATOM     33  C   UNL     1       0.116 -12.864  15.355  0.00  0.00    +0.122 A 
ATOM     34  C   UNL     1       0.675 -12.131  16.392  0.00  0.00    +0.046 A 
ATOM     35  C   UNL     1       0.580 -12.592  17.691  0.00  0.00    +0.004 A 
ATOM     36  C   UNL     1      -0.071 -13.782  17.958  0.00  0.00    +0.000 A 
ATOM     37  C   UNL     1      -0.629 -14.514  16.927  0.00  0.00    +0.004 A 
ATOM     38  C   UNL     1      -0.542 -14.055  15.627  0.00  0.00    +0.046 A 
ENDBRANCH  32  33
ENDBRANCH  31  32
ENDBRANCH  30  31
ENDBRANCH  26  29
ENDBRANCH  13  24
TORSDOF 6
