REMARK  Name = CHEMBL205893
REMARK  4 active torsions:
REMARK  status: ('A' for Active; 'I' for Inactive)
REMARK    1  A    between atoms: C_1  and  N_2
REMARK    2  A    between atoms: N_5  and  C_8
REMARK    3  A    between atoms: C_15  and  C_18
REMARK    4  A    between atoms: C_19  and  N_29
REMARK                            x       y       z     vdW  Elec       q    Type
REMARK                         _______ _______ _______ _____ _____    ______ ____
ROOT
ATOM      1  C   UNL     1      -0.898  -3.748   1.525  0.00  0.00    +0.032 A 
ATOM      2  C   UNL     1      -2.200  -4.213   1.351  0.00  0.00    +0.025 A 
ATOM      3  C   UNL     1      -2.678  -5.252   2.120  0.00  0.00    +0.029 A 
ATOM      4  C   UNL     1      -1.861  -5.842   3.073  0.00  0.00    +0.067 A 
ATOM      5  C   UNL     1      -0.545  -5.381   3.255  0.00  0.00    +0.091 A 
ATOM      6  C   UNL     1      -0.069  -4.329   2.466  0.00  0.00    +0.053 A 
ATOM      7  N   UNL     1       0.011  -6.131   4.238  0.00  0.00    -0.227 NA
ATOM      8  C   UNL     1      -0.861  -7.013   4.669  0.00  0.00    +0.146 A 
ATOM      9  N   UNL     1      -2.037  -6.875   3.979  0.00  0.00    -0.338 N 
ATOM     10  H   UNL     1      -2.842  -7.402   4.102  0.00  0.00    +0.167 HD
ENDROOT
BRANCH   8  11
ATOM     11  C   UNL     1      -0.614  -8.001   5.732  0.00  0.00    +0.103 A 
ATOM     12  C   UNL     1       0.581  -7.971   6.454  0.00  0.00    +0.050 A 
ATOM     13  C   UNL     1       0.776  -8.978   7.503  0.00  0.00    +0.023 A 
ATOM     14  C   UNL     1       1.940  -9.025   8.277  0.00  0.00    +0.031 A 
ATOM     15  C   UNL     1       2.048 -10.002   9.244  0.00  0.00    +0.111 A 
ATOM     16  N   UNL     1       1.079 -10.879   9.442  0.00  0.00    -0.261 NA
ATOM     17  C   UNL     1      -0.034 -10.876   8.740  0.00  0.00    +0.137 A 
ATOM     18  C   UNL     1      -0.234  -9.927   7.742  0.00  0.00    +0.069 A 
ATOM     19  N   UNL     1      -1.392  -9.903   6.994  0.00  0.00    -0.320 N 
ATOM     20  C   UNL     1      -1.588  -8.983   6.034  0.00  0.00    +0.262 A 
ATOM     21  O   UNL     1      -2.630  -8.998   5.402  0.00  0.00    -0.267 OA
ATOM     22  H   UNL     1      -2.082 -10.562   7.167  0.00  0.00    +0.169 HD
BRANCH  12  23
ATOM     23  N   UNL     1       1.544  -7.027   6.190  0.00  0.00    -0.357 N 
ATOM     24  H   UNL     1       1.368  -6.320   5.551  0.00  0.00    +0.142 HD
ATOM     25  H   UNL     1       2.401  -7.069   6.643  0.00  0.00    +0.142 HD
ENDBRANCH  12  23
ENDBRANCH   8  11
BRANCH   1  30
ATOM     26  C   UNL     1       0.030   1.392  -0.114  0.00  0.00    +0.105 C 
ATOM     27  N   UNL     1       0.049  -0.077  -0.098  0.00  0.00    -0.302 NA
ATOM     28  C   UNL     1      -1.312  -0.622  -0.194  0.00  0.00    +0.103 C 
ATOM     29  C   UNL     1      -1.239  -2.144  -0.357  0.00  0.00    +0.120 C 
ATOM     30  N   UNL     1      -0.425  -2.693   0.738  0.00  0.00    -0.327 N 
ATOM     31  C   UNL     1       0.900  -2.103   0.983  0.00  0.00    +0.120 C 
ATOM     32  C   UNL     1       0.743  -0.582   1.094  0.00  0.00    +0.103 C 
ENDBRANCH   1  30
TORSDOF 3
