REMARK  Name = CHEMBL177688
REMARK  7 active torsions:
REMARK  status: ('A' for Active; 'I' for Inactive)
REMARK    1  A    between atoms: C_3  and  N_8
REMARK    2  A    between atoms: C_13  and  C_15
REMARK    3  A    between atoms: C_17  and  N_21
REMARK    4  A    between atoms: N_21  and  C_22
REMARK    5  A    between atoms: C_22  and  C_23
REMARK    6  A    between atoms: C_23  and  C_24
REMARK    7  A    between atoms: C_24  and  O_25
REMARK                            x       y       z     vdW  Elec       q    Type
REMARK                         _______ _______ _______ _____ _____    ______ ____
ROOT
ATOM      1  N   UNL     1       3.583   2.124  -0.021  0.00  0.00    -0.298 N 
ATOM      2  C   UNL     1       4.791   1.446  -0.141  0.00  0.00    +0.142 A 
ATOM      3  C   UNL     1       4.802   0.057  -0.259  0.00  0.00    +0.154 A 
ATOM      4  N   UNL     1       5.947  -0.589  -0.373  0.00  0.00    -0.258 NA
ATOM      5  C   UNL     1       7.088   0.077  -0.376  0.00  0.00    +0.139 A 
ATOM      6  C   UNL     1       7.085   1.466  -0.259  0.00  0.00    +0.093 A 
ATOM      7  N   UNL     1       5.932   2.119  -0.149  0.00  0.00    -0.229 NA
ATOM      8  H   UNL     1       2.745   1.642  -0.106  0.00  0.00    +0.154 HD
ENDROOT
BRANCH   1  11
ATOM      9  C   UNL     1       4.521   5.426   1.295  0.00  0.00    +0.003 A 
ATOM     10  C   UNL     1       4.530   4.065   1.058  0.00  0.00    +0.023 A 
ATOM     11  C   UNL     1       3.575   3.501   0.221  0.00  0.00    +0.034 A 
ATOM     12  C   UNL     1       2.614   4.307  -0.375  0.00  0.00    +0.043 A 
ATOM     13  C   UNL     1       2.610   5.668  -0.133  0.00  0.00    +0.043 A 
ATOM     14  C   UNL     1       3.563   6.226   0.701  0.00  0.00    +0.020 A 
ATOM     15 CL   UNL     1       1.410   6.677  -0.877  0.00  0.00    -0.083 Cl
ENDBRANCH   1  11
BRANCH   6  16
ATOM     16  C   UNL     1       8.366   2.214  -0.262  0.00  0.00    +0.022 A 
ATOM     17  C   UNL     1       9.582   1.537  -0.387  0.00  0.00    +0.036 A 
ATOM     18  C   UNL     1      10.755   2.285  -0.384  0.00  0.00    +0.046 A 
ATOM     19  C   UNL     1      10.675   3.667  -0.258  0.00  0.00    +0.133 A 
ATOM     20  N   UNL     1       9.509   4.271  -0.142  0.00  0.00    -0.261 NA
ATOM     21  C   UNL     1       8.375   3.602  -0.145  0.00  0.00    +0.120 A 
BRANCH  18  22
ATOM     22  N   UNL     1      11.996   1.656  -0.506  0.00  0.00    -0.343 N 
ATOM     23  H   UNL     1      12.044   0.691  -0.594  0.00  0.00    +0.146 HD
BRANCH  22  24
ATOM     24  C   UNL     1      13.225   2.453  -0.502  0.00  0.00    +0.104 C 
BRANCH  24  25
ATOM     25  C   UNL     1      14.434   1.526  -0.648  0.00  0.00    +0.046 C 
BRANCH  25  26
ATOM     26  C   UNL     1      15.718   2.359  -0.644  0.00  0.00    +0.157 C 
BRANCH  26  27
ATOM     27  O   UNL     1      16.847   1.494  -0.781  0.00  0.00    -0.395 OA
ATOM     28  H   UNL     1      17.697   1.955  -0.786  0.00  0.00    +0.209 HD
ENDBRANCH  26  27
ENDBRANCH  25  26
ENDBRANCH  24  25
ENDBRANCH  22  24
ENDBRANCH  18  22
ENDBRANCH   6  16
TORSDOF 7
