REMARK  Name = CHEMBL387971
REMARK  11 active torsions:
REMARK  status: ('A' for Active; 'I' for Inactive)
REMARK    1  A    between atoms: C_1  and  N_2
REMARK    2  A    between atoms: N_5  and  C_8
REMARK    3  A    between atoms: C_8  and  C_9
REMARK    4  A    between atoms: C_22  and  C_23
REMARK    5  A    between atoms: C_25  and  C_28
REMARK    6  A    between atoms: C_29  and  C_30
REMARK    7  A    between atoms: C_30  and  O_31
REMARK    8  A    between atoms: O_31  and  C_32
REMARK    9  A    between atoms: C_32  and  C_33
REMARK   10  A    between atoms: C_33  and  O_34
REMARK   11  A    between atoms: O_34  and  C_35
REMARK                            x       y       z     vdW  Elec       q    Type
REMARK                         _______ _______ _______ _____ _____    ______ ____
ROOT
ATOM      1  C   UNL     1      -0.094  -4.478   2.524  0.00  0.00    -0.033 A 
ATOM      2  C   UNL     1       1.260  -4.705   2.676  0.00  0.00    +0.005 A 
ATOM      3  C   UNL     1       1.767  -5.136   3.892  0.00  0.00    +0.011 A 
ATOM      4  C   UNL     1       0.912  -5.343   4.967  0.00  0.00    +0.011 A 
ATOM      5  C   UNL     1      -0.465  -5.112   4.809  0.00  0.00    +0.032 A 
ATOM      6  C   UNL     1      -0.960  -4.675   3.589  0.00  0.00    +0.017 A 
ATOM      7  C   UNL     1      -1.119  -5.413   6.108  0.00  0.00    +0.198 C 
ATOM      8  O   UNL     1      -2.305  -5.329   6.357  0.00  0.00    -0.286 OA
ATOM      9  C   UNL     1      -0.053  -5.834   7.039  0.00  0.00    +0.075 A 
ATOM     10  C   UNL     1       1.158  -5.792   6.358  0.00  0.00    +0.078 A 
ATOM     11  N   UNL     1       2.118  -6.180   7.224  0.00  0.00    -0.276 N 
ATOM     12  H   UNL     1       3.065  -6.247   7.026  0.00  0.00    +0.189 HD
ATOM     13  N   UNL     1       1.519  -6.469   8.455  0.00  0.00    -0.173 NA
ATOM     14  C   UNL     1       0.221  -6.266   8.358  0.00  0.00    +0.104 A 
ENDROOT
BRANCH  14  15
ATOM     15  C   UNL     1      -0.775  -6.456   9.439  0.00  0.00    +0.011 A 
ATOM     16  C   UNL     1      -0.625  -7.473  10.375  0.00  0.00    +0.034 A 
ATOM     17  C   UNL     1      -1.602  -7.559  11.330  0.00  0.00    +0.063 A 
ATOM     18  S   UNL     1      -2.688  -6.219  10.882  0.00  0.00    -0.088 S 
ATOM     19  C   UNL     1      -1.860  -5.634   9.543  0.00  0.00    +0.056 A 
BRANCH  17  20
ATOM     20  C   UNL     1      -1.721  -8.489  12.413  0.00  0.00    -0.057 C 
ATOM     21  C   UNL     1      -1.819  -9.251  13.300  0.00  0.00    -0.068 C 
BRANCH  21  22
ATOM     22  C   UNL     1      -1.942 -10.207  14.413  0.00  0.00    +0.248 C 
BRANCH  22  23
ATOM     23  O   UNL     1      -3.126  -9.919  15.159  0.00  0.00    -0.365 OA
BRANCH  23  24
ATOM     24  C   UNL     1      -3.341 -10.794  16.269  0.00  0.00    +0.189 C 
BRANCH  24  25
ATOM     25  C   UNL     1      -4.629 -10.396  16.991  0.00  0.00    +0.187 C 
BRANCH  25  26
ATOM     26  O   UNL     1      -5.746 -10.604  16.123  0.00  0.00    -0.381 OA
ATOM     27  C   UNL     1      -7.005 -10.261  16.704  0.00  0.00    +0.194 C 
ENDBRANCH  25  26
ENDBRANCH  24  25
ENDBRANCH  23  24
ENDBRANCH  22  23
ENDBRANCH  21  22
ENDBRANCH  17  20
ENDBRANCH  14  15
BRANCH   1  28
ATOM     28  C   UNL     1      -0.632  -4.009   1.196  0.00  0.00    +0.119 C 
BRANCH  28  33
ATOM     29  C   UNL     1      -0.018   1.465   0.010  0.00  0.00    -0.096 C 
ATOM     30  N   UNL     1       0.002  -0.004   0.002  0.00  0.00    +0.379 N 
ATOM     31  C   UNL     1      -1.376  -0.512   0.011  0.00  0.00    -0.064 C 
ATOM     32  C   UNL     1      -1.356  -2.042  -0.017  0.00  0.00    +0.066 C 
ATOM     33  N   UNL     1      -0.624  -2.541   1.156  0.00  0.00    -0.302 NA
ATOM     34  C   UNL     1       0.750  -2.020   1.175  0.00  0.00    +0.066 C 
ATOM     35  C   UNL     1       0.713  -0.490   1.192  0.00  0.00    -0.064 C 
ATOM     36  H   UNL     1       0.475  -0.329  -0.828  0.00  0.00    -0.082 HD
ENDBRANCH  28  33
ENDBRANCH   1  28
TORSDOF 9
