REMARK  Name = CHEMBL1202478
REMARK  8 active torsions:
REMARK  status: ('A' for Active; 'I' for Inactive)
REMARK    1  A    between atoms: C_1  and  O_2
REMARK    2  A    between atoms: O_2  and  C_3
REMARK    3  A    between atoms: C_8  and  O_9
REMARK    4  A    between atoms: O_9  and  C_10
REMARK    5  A    between atoms: C_10  and  C_11
REMARK    6  A    between atoms: C_12  and  C_13
REMARK    7  A    between atoms: C_13  and  N_14
REMARK    8  A    between atoms: N_23  and  C_24
REMARK                            x       y       z     vdW  Elec       q    Type
REMARK                         _______ _______ _______ _____ _____    ______ ____
ROOT
ATOM      1  C   UNL     1      -1.212  -0.536   0.754  0.00  0.00    +0.162 A 
ATOM      2  C   UNL     1      -2.359   0.166   0.516  0.00  0.00    +0.062 A 
ATOM      3  C   UNL     1      -3.598  -0.479   0.608  0.00  0.00    +0.044 A 
ATOM      4  C   UNL     1      -3.656  -1.854   0.946  0.00  0.00    +0.080 A 
ATOM      5  C   UNL     1      -2.467  -2.554   1.185  0.00  0.00    +0.078 A 
ATOM      6  C   UNL     1      -1.261  -1.898   1.083  0.00  0.00    +0.164 A 
ATOM      7  N   UNL     1      -4.856  -2.449   1.026  0.00  0.00    -0.235 NA
ATOM      8  C   UNL     1      -5.953  -1.767   0.796  0.00  0.00    +0.223 A 
ATOM      9  N   UNL     1      -5.948  -0.482   0.477  0.00  0.00    -0.220 NA
ATOM     10  C   UNL     1      -4.816   0.202   0.371  0.00  0.00    +0.134 A 
ATOM     11  N   UNL     1      -4.826   1.541   0.039  0.00  0.00    -0.297 N 
ATOM     12  H   UNL     1      -3.991   2.006  -0.128  0.00  0.00    +0.154 HD
ENDROOT
BRANCH  11  13
ATOM     13  C   UNL     1      -6.041   2.229  -0.058  0.00  0.00    +0.068 A 
ATOM     14  C   UNL     1      -7.183   1.712   0.540  0.00  0.00    +0.027 A 
ATOM     15  C   UNL     1      -8.380   2.394   0.444  0.00  0.00    +0.017 A 
ATOM     16  C   UNL     1      -8.445   3.591  -0.247  0.00  0.00    +0.021 A 
ATOM     17  C   UNL     1      -7.310   4.109  -0.845  0.00  0.00    +0.055 A 
ATOM     18  C   UNL     1      -6.106   3.435  -0.747  0.00  0.00    +0.145 A 
ATOM     19  F   UNL     1      -4.997   3.944  -1.326  0.00  0.00    -0.204 F 
ATOM     20 BR   UNL     1     -10.087   4.519  -0.377  0.00  0.00    -0.050 Br
ENDBRANCH  11  13
BRANCH   1  22
ATOM     21  C   UNL     1      -0.025   1.479   0.325  0.00  0.00    +0.277 C 
ATOM     22  O   UNL     1      -0.009   0.091   0.664  0.00  0.00    -0.491 OA
ENDBRANCH   1  22
BRANCH   6  23
ATOM     23  O   UNL     1      -0.105  -2.576   1.310  0.00  0.00    -0.484 OA
BRANCH  23  24
ATOM     24  C   UNL     1      -0.221  -3.962   1.641  0.00  0.00    +0.256 C 
BRANCH  24  25
ATOM     25  C   UNL     1       1.153  -4.543   1.856  0.00  0.00    +0.007 C 
ATOM     26  C   UNL     1       1.381  -5.321   2.885  0.00  0.00    -0.046 C 
BRANCH  26  27
ATOM     27  C   UNL     1       2.755  -5.902   3.100  0.00  0.00    -0.051 C 
BRANCH  27  28
ATOM     28  N   UNL     1       3.229  -5.554   4.446  0.00  0.00    +0.382 N 
ATOM     29  C   UNL     1       2.428  -6.269   5.472  0.00  0.00    -0.078 C 
ATOM     30  C   UNL     1       3.356  -6.264   6.713  0.00  0.00    -0.020 C 
ATOM     31  C   UNL     1       4.759  -6.466   6.096  0.00  0.00    -0.020 C 
ATOM     32  C   UNL     1       4.623  -6.014   4.630  0.00  0.00    -0.078 C 
ATOM     33  H   UNL     1       3.170  -4.557   4.589  0.00  0.00    -0.081 HD
ENDBRANCH  27  28
ENDBRANCH  26  27
ENDBRANCH  24  25
ENDBRANCH  23  24
ENDBRANCH   6  23
TORSDOF 7
