REMARK  Name = CHEMBL202441
REMARK  8 active torsions:
REMARK  status: ('A' for Active; 'I' for Inactive)
REMARK    1  A    between atoms: C_1  and  N_2
REMARK    2  A    between atoms: C_5  and  C_8
REMARK    3  A    between atoms: C_8  and  O_9
REMARK    4  A    between atoms: O_9  and  C_10
REMARK    5  A    between atoms: C_15  and  O_16
REMARK    6  A    between atoms: O_16  and  C_17
REMARK    7  A    between atoms: C_18  and  C_22
REMARK    8  A    between atoms: C_22  and  C_23
REMARK                            x       y       z     vdW  Elec       q    Type
REMARK                         _______ _______ _______ _____ _____    ______ ____
ROOT
ATOM      1  C   UNL     1       0.236  -6.020   2.221  0.00  0.00    +0.164 A 
ATOM      2  C   UNL     1      -0.177  -6.785   1.167  0.00  0.00    +0.077 A 
ATOM      3  C   UNL     1      -0.021  -8.176   1.217  0.00  0.00    +0.078 A 
ATOM      4  C   UNL     1       0.567  -8.771   2.365  0.00  0.00    +0.026 A 
ATOM      5  C   UNL     1       0.982  -7.961   3.433  0.00  0.00    +0.061 A 
ATOM      6  C   UNL     1       0.822  -6.608   3.353  0.00  0.00    +0.162 A 
ATOM      7  C   UNL     1       0.712 -10.168   2.389  0.00  0.00    +0.057 A 
ATOM      8  N   UNL     1       0.297 -10.860   1.346  0.00  0.00    -0.239 NA
ATOM      9  C   UNL     1      -0.246 -10.269   0.292  0.00  0.00    +0.222 A 
ATOM     10  N   UNL     1      -0.409  -8.970   0.211  0.00  0.00    -0.235 NA
ENDROOT
BRANCH   6  11
ATOM     11  O   UNL     1       1.228  -5.821   4.384  0.00  0.00    -0.491 OA
ATOM     12  C   UNL     1       1.817  -6.478   5.508  0.00  0.00    +0.277 C 
ENDBRANCH   6  11
BRANCH   1  13
ATOM     13  O   UNL     1       0.084  -4.671   2.170  0.00  0.00    -0.488 OA
BRANCH  13  14
ATOM     14  C   UNL     1      -0.518  -4.130   0.992  0.00  0.00    +0.232 C 
BRANCH  14  19
ATOM     15  C   UNL     1      -0.018   1.465   0.010  0.00  0.00    -0.096 C 
ATOM     16  N   UNL     1       0.002  -0.004   0.002  0.00  0.00    +0.378 N 
ATOM     17  C   UNL     1      -1.376  -0.511   0.004  0.00  0.00    -0.079 C 
ATOM     18  C   UNL     1      -1.361  -2.038  -0.087  0.00  0.00    -0.012 C 
ATOM     19  C   UNL     1      -0.605  -2.608   1.117  0.00  0.00    +0.023 C 
ATOM     20  C   UNL     1       0.807  -2.015   1.147  0.00  0.00    -0.012 C 
ATOM     21  C   UNL     1       0.712  -0.489   1.192  0.00  0.00    -0.079 C 
ATOM     22  H   UNL     1       0.477  -0.328  -0.827  0.00  0.00    -0.082 HD
ENDBRANCH  14  19
ENDBRANCH  13  14
ENDBRANCH   1  13
BRANCH   7  23
ATOM     23  C   UNL     1       1.328 -10.860   3.578  0.00  0.00    +0.094 C 
BRANCH  23  24
ATOM     24  C   UNL     1       0.249 -11.214   4.569  0.00  0.00    -0.006 A 
ATOM     25  C   UNL     1      -0.031 -10.361   5.620  0.00  0.00    +0.008 A 
ATOM     26  C   UNL     1      -1.022 -10.685   6.528  0.00  0.00    +0.016 A 
ATOM     27  C   UNL     1      -1.733 -11.864   6.386  0.00  0.00    +0.021 A 
ATOM     28  C   UNL     1      -1.454 -12.718   5.336  0.00  0.00    +0.054 A 
ATOM     29  C   UNL     1      -0.466 -12.391   4.422  0.00  0.00    +0.128 A 
ATOM     30  F   UNL     1      -0.196 -13.222   3.392  0.00  0.00    -0.205 F 
ATOM     31 BR   UNL     1      -3.087 -12.306   7.630  0.00  0.00    -0.050 Br
ENDBRANCH  23  24
ENDBRANCH   7  23
TORSDOF 6
