REMARK  Name = CHEMBL493877
REMARK  12 active torsions:
REMARK  status: ('A' for Active; 'I' for Inactive)
REMARK    1  A    between atoms: C_1  and  C_2
REMARK    2  A    between atoms: C_2  and  C_3
REMARK    3  A    between atoms: C_2  and  C_4
REMARK    4  A    between atoms: C_2  and  C_5
REMARK    5  A    between atoms: C_8  and  N_11
REMARK    6  A    between atoms: C_12  and  C_14
REMARK    7  A    between atoms: N_22  and  C_24
REMARK    8  A    between atoms: C_24  and  C_25
REMARK    9  A    between atoms: C_32  and  O_37
REMARK   10  A    between atoms: C_33  and  O_35
REMARK   11  A    between atoms: O_35  and  C_36
REMARK   12  A    between atoms: O_37  and  C_38
REMARK                            x       y       z     vdW  Elec       q    Type
REMARK                         _______ _______ _______ _____ _____    ______ ____
ROOT
ATOM      1  C   UNL     1       4.559  -1.801  -6.207  0.00  0.00    +0.041 A 
ATOM      2  C   UNL     1       3.875  -2.598  -7.124  0.00  0.00    +0.013 A 
ATOM      3  C   UNL     1       4.489  -2.956  -8.307  0.00  0.00    +0.001 A 
ATOM      4  C   UNL     1       5.774  -2.528  -8.576  0.00  0.00    +0.005 A 
ATOM      5  C   UNL     1       6.463  -1.736  -7.668  0.00  0.00    -0.029 A 
ATOM      6  C   UNL     1       5.858  -1.363  -6.489  0.00  0.00    -0.030 A 
ATOM      7  C   UNL     1       6.558  -0.489  -5.480  0.00  0.00    +0.051 C 
ATOM      8  C   UNL     1       8.060  -0.467  -5.763  0.00  0.00    +0.090 C 
ATOM      9  N   UNL     1       8.263  -0.155  -7.186  0.00  0.00    -0.294 NA
ATOM     10  C   UNL     1       7.864  -1.304  -8.012  0.00  0.00    +0.120 C 
ENDROOT
BRANCH   1  12
ATOM     11  N   UNL     1       2.657  -1.833  -4.665  0.00  0.00    -0.281 N 
ATOM     12  C   UNL     1       3.908  -1.412  -4.937  0.00  0.00    +0.249 C 
ATOM     13  O   UNL     1       4.502  -0.713  -4.139  0.00  0.00    -0.270 OA
ATOM     14  H   UNL     1       2.212  -2.453  -5.265  0.00  0.00    +0.155 HD
BRANCH  11  18
ATOM     15  C   UNL     1       0.699  -0.475  -1.249  0.00  0.00    -0.042 A 
ATOM     16  C   UNL     1       1.581   0.357  -1.915  0.00  0.00    +0.006 A 
ATOM     17  C   UNL     1       2.232  -0.091  -3.048  0.00  0.00    +0.023 A 
ATOM     18  C   UNL     1       2.000  -1.377  -3.518  0.00  0.00    +0.034 A 
ATOM     19  C   UNL     1       1.114  -2.210  -2.846  0.00  0.00    +0.023 A 
ATOM     20  C   UNL     1       0.471  -1.758  -1.710  0.00  0.00    +0.006 A 
BRANCH  15  22
ATOM     21  C   UNL     1       0.358  -0.875   1.175  0.00  0.00    +0.015 C 
ATOM     22  C   UNL     1      -0.009   0.017  -0.013  0.00  0.00    -0.013 C 
ATOM     23  C   UNL     1      -1.522  -0.032  -0.238  0.00  0.00    +0.015 C 
ATOM     24  C   UNL     1       0.417   1.457   0.281  0.00  0.00    +0.015 C 
ENDBRANCH  15  22
ENDBRANCH  11  18
ENDBRANCH   1  12
BRANCH   9  25
ATOM     25  C   UNL     1       9.659   0.221  -7.450  0.00  0.00    +0.120 C 
BRANCH  25  26
ATOM     26  C   UNL     1       9.777   0.766  -8.850  0.00  0.00    -0.023 A 
ATOM     27  C   UNL     1      10.238  -0.017  -9.871  0.00  0.00    +0.025 A 
ATOM     28  C   UNL     1      10.338   0.507 -11.157  0.00  0.00    +0.112 A 
ATOM     29  N   UNL     1      10.001   1.746 -11.425  0.00  0.00    -0.255 NA
ATOM     30  C   UNL     1       9.543   2.564 -10.472  0.00  0.00    +0.075 A 
ATOM     31  C   UNL     1       9.411   2.092  -9.142  0.00  0.00    +0.008 A 
ATOM     32  C   UNL     1       8.925   2.952  -8.143  0.00  0.00    +0.059 A 
ATOM     33  C   UNL     1       8.580   4.232  -8.463  0.00  0.00    +0.162 A 
ATOM     34  C   UNL     1       8.705   4.699  -9.781  0.00  0.00    +0.164 A 
ATOM     35  C   UNL     1       9.184   3.890 -10.769  0.00  0.00    +0.077 A 
BRANCH  34  36
ATOM     36  O   UNL     1       8.354   5.979 -10.074  0.00  0.00    -0.491 OA
ATOM     37  C   UNL     1       8.503   6.398 -11.432  0.00  0.00    +0.277 C 
ENDBRANCH  34  36
BRANCH  33  38
ATOM     38  O   UNL     1       8.110   5.064  -7.496  0.00  0.00    -0.491 OA
ATOM     39  C   UNL     1       8.005   4.529  -6.175  0.00  0.00    +0.277 C 
ENDBRANCH  33  38
ENDBRANCH  25  26
ENDBRANCH   9  25
TORSDOF 7
