REMARK  Name = CHEMBL397497
REMARK  6 active torsions:
REMARK  status: ('A' for Active; 'I' for Inactive)
REMARK    1  A    between atoms: C_1  and  N_2
REMARK    2  A    between atoms: N_5  and  C_8
REMARK    3  A    between atoms: C_8  and  C_9
REMARK    4  A    between atoms: C_11  and  N_16
REMARK    5  A    between atoms: C_23  and  O_27
REMARK    6  A    between atoms: O_27  and  C_28
REMARK                            x       y       z     vdW  Elec       q    Type
REMARK                         _______ _______ _______ _____ _____    ______ ____
ROOT
ATOM      1  N   UNL     1      -1.803  -6.183   5.710  0.00  0.00    -0.285 N 
ATOM      2  C   UNL     1      -3.091  -6.351   5.245  0.00  0.00    +0.198 A 
ATOM      3  N   UNL     1      -4.088  -7.003   5.913  0.00  0.00    -0.326 N 
ATOM      4  H   UNL     1      -4.017  -7.423   6.785  0.00  0.00    +0.169 HD
ATOM      5  C   UNL     1      -5.220  -6.952   5.114  0.00  0.00    +0.068 A 
ATOM      6  C   UNL     1      -6.515  -7.428   5.252  0.00  0.00    +0.031 A 
ATOM      7  C   UNL     1      -7.438  -7.211   4.251  0.00  0.00    +0.048 A 
ATOM      8  C   UNL     1      -7.078  -6.514   3.101  0.00  0.00    +0.131 A 
ATOM      9  C   UNL     1      -5.792  -6.033   2.949  0.00  0.00    +0.076 A 
ATOM     10  C   UNL     1      -4.848  -6.248   3.957  0.00  0.00    +0.094 A 
ATOM     11  N   UNL     1      -3.542  -5.904   4.099  0.00  0.00    -0.214 NA
ATOM     12  H   UNL     1      -1.525  -6.612   6.535  0.00  0.00    +0.155 HD
ENDROOT
BRANCH   1  15
ATOM     13  C   UNL     1      -0.458  -3.542   3.535  0.00  0.00    -0.013 A 
ATOM     14  C   UNL     1      -1.354  -4.319   4.242  0.00  0.00    +0.029 A 
ATOM     15  C   UNL     1      -0.897  -5.395   4.993  0.00  0.00    +0.034 A 
ATOM     16  C   UNL     1       0.461  -5.686   5.029  0.00  0.00    +0.025 A 
ATOM     17  C   UNL     1       1.352  -4.906   4.320  0.00  0.00    +0.022 A 
ATOM     18  C   UNL     1       0.894  -3.837   3.569  0.00  0.00    +0.045 A 
ATOM     19 CL   UNL     1       2.017  -2.863   2.674  0.00  0.00    -0.083 Cl
BRANCH  13  20
ATOM     20  C   UNL     1      -0.953  -2.375   2.720  0.00  0.00    +0.121 C 
BRANCH  20  25
ATOM     21  C   UNL     1      -1.231  -3.008  -2.871  0.00  0.00    -0.096 C 
ATOM     22  N   UNL     1      -1.501  -2.720  -1.457  0.00  0.00    +0.379 N 
ATOM     23  C   UNL     1      -0.538  -1.725  -0.967  0.00  0.00    -0.064 C 
ATOM     24  C   UNL     1      -0.832  -1.411   0.502  0.00  0.00    +0.066 C 
ATOM     25  N   UNL     1      -0.733  -2.645   1.293  0.00  0.00    -0.302 NA
ATOM     26  C   UNL     1      -1.674  -3.659   0.798  0.00  0.00    +0.066 C 
ATOM     27  C   UNL     1      -1.373  -3.955  -0.673  0.00  0.00    -0.064 C 
ATOM     28  H   UNL     1      -2.438  -2.356  -1.361  0.00  0.00    -0.082 HD
ENDBRANCH  20  25
ENDBRANCH  13  20
ENDBRANCH   1  15
BRANCH   8  29
ATOM     29  O   UNL     1      -7.998  -6.306   2.121  0.00  0.00    -0.455 OA
BRANCH  29  30
ATOM     30  C   UNL     1      -7.945  -7.098   1.020  0.00  0.00    +0.141 A 
ATOM     31  C   UNL     1      -7.019  -8.128   0.922  0.00  0.00    +0.066 A 
ATOM     32  C   UNL     1      -6.996  -8.913  -0.217  0.00  0.00    +0.117 A 
ATOM     33  N   UNL     1      -7.832  -8.709  -1.214  0.00  0.00    -0.237 NA
ATOM     34  C   UNL     1      -8.740  -7.740  -1.179  0.00  0.00    +0.142 A 
ATOM     35  C   UNL     1      -8.828  -6.904  -0.052  0.00  0.00    +0.061 A 
ATOM     36  C   UNL     1      -9.916  -5.964  -0.323  0.00  0.00    +0.032 A 
ATOM     37  C   UNL     1     -10.404  -6.272  -1.535  0.00  0.00    +0.085 A 
ATOM     38  N   UNL     1      -9.706  -7.325  -2.063  0.00  0.00    -0.346 N 
ATOM     39  H   UNL     1      -9.876  -7.727  -2.930  0.00  0.00    +0.167 HD
ENDBRANCH  29  30
ENDBRANCH   8  29
TORSDOF 5
