REMARK  Name = CHEMBL94542
REMARK  2 active torsions:
REMARK  status: ('A' for Active; 'I' for Inactive)
REMARK    1  A    between atoms: C_6  and  C_7
REMARK    2  A    between atoms: C_11  and  C_16
REMARK                            x       y       z     vdW  Elec       q    Type
REMARK                         _______ _______ _______ _____ _____    ______ ____
ROOT
ATOM      1  C   UNL     1      -1.260  -0.783   0.010  0.00  0.00    +0.019 A 
ATOM      2  C   UNL     1      -2.131  -0.722   1.120  0.00  0.00    +0.123 A 
ATOM      3  N   UNL     1      -3.245  -1.414   1.120  0.00  0.00    -0.235 NA
ATOM      4  C   UNL     1      -3.578  -2.184   0.080  0.00  0.00    +0.163 A 
ATOM      5  C   UNL     1      -4.685  -3.009  -0.171  0.00  0.00    +0.042 A 
ATOM      6  C   UNL     1      -4.497  -3.579  -1.437  0.00  0.00    +0.145 A 
ATOM      7  N   UNL     1      -3.365  -3.144  -1.934  0.00  0.00    -0.173 NA
ATOM      8  N   UNL     1      -2.763  -2.274  -1.019  0.00  0.00    -0.221 N 
ATOM      9  C   UNL     1      -1.598  -1.565  -1.059  0.00  0.00    +0.124 A 
ENDROOT
BRANCH   1  15
ATOM     10  C   UNL     1      -0.017   1.394   0.010  0.00  0.00    +0.028 A 
ATOM     11  C   UNL     1       1.180   2.079   0.002  0.00  0.00    +0.111 A 
ATOM     12  N   UNL     1       2.330   1.433  -0.013  0.00  0.00    -0.263 NA
ATOM     13  C   UNL     1       2.392   0.115  -0.021  0.00  0.00    +0.111 A 
ATOM     14  C   UNL     1       1.243  -0.648  -0.014  0.00  0.00    +0.028 A 
ATOM     15  C   UNL     1       0.002  -0.004   0.002  0.00  0.00    -0.012 A 
ENDBRANCH   1  15
BRANCH   5  16
ATOM     16  C   UNL     1      -5.831  -3.233   0.730  0.00  0.00    -0.039 C 
ATOM     17  C   UNL     1      -5.793  -3.981   1.822  0.00  0.00    -0.023 C 
ATOM     18  C   UNL     1      -7.139  -3.994   2.509  0.00  0.00    +0.028 C 
ATOM     19  C   UNL     1      -7.905  -2.796   1.903  0.00  0.00    +0.009 C 
ATOM     20  C   UNL     1      -7.205  -2.636   0.536  0.00  0.00    +0.036 C 
ENDBRANCH   5  16
TORSDOF 2
