REMARK  Name = CHEMBL271310
REMARK  13 active torsions:
REMARK  status: ('A' for Active; 'I' for Inactive)
REMARK    1  A    between atoms: C_1  and  C_2
REMARK    2  A    between atoms: C_2  and  C_3
REMARK    3  A    between atoms: C_2  and  C_4
REMARK    4  A    between atoms: C_5  and  C_28
REMARK    5  A    between atoms: N_13  and  C_14
REMARK    6  A    between atoms: C_16  and  C_22
REMARK    7  A    between atoms: N_24  and  C_25
REMARK    8  A    between atoms: N_33  and  C_34
REMARK    9  A    between atoms: C_34  and  C_35
REMARK   10  A    between atoms: C_35  and  C_36
REMARK   11  A    between atoms: C_36  and  N_37
REMARK   12  A    between atoms: N_37  and  C_38
REMARK   13  A    between atoms: N_37  and  C_39
REMARK                            x       y       z     vdW  Elec       q    Type
REMARK                         _______ _______ _______ _____ _____    ______ ____
ROOT
ATOM      1  C   UNL     1      -1.472  -0.560  -0.000  0.00  0.00    -0.002 A 
ATOM      2  C   UNL     1      -2.371  -0.542   1.082  0.00  0.00    +0.062 A 
ATOM      3  C   UNL     1      -3.350  -1.483   0.820  0.00  0.00    +0.126 A 
ATOM      4  N   UNL     1      -3.086  -2.064  -0.363  0.00  0.00    -0.234 N 
ATOM      5  C   UNL     1      -1.935  -1.507  -0.889  0.00  0.00    +0.109 A 
ATOM      6  C   UNL     1      -1.472  -1.971  -2.144  0.00  0.00    +0.151 A 
ATOM      7  N   UNL     1      -2.152  -2.916  -2.773  0.00  0.00    -0.217 NA
ATOM      8  C   UNL     1      -3.260  -3.441  -2.255  0.00  0.00    +0.245 A 
ATOM      9  N   UNL     1      -3.737  -3.064  -1.100  0.00  0.00    -0.155 NA
ATOM     10  N   UNL     1      -0.326  -1.444  -2.705  0.00  0.00    -0.295 N 
ATOM     11  H   UNL     1       0.218  -0.820  -2.200  0.00  0.00    +0.154 HD
ENDROOT
BRANCH  10  12
ATOM     12  C   UNL     1       0.052  -1.812  -4.003  0.00  0.00    +0.069 A 
ATOM     13  C   UNL     1      -0.887  -2.335  -4.874  0.00  0.00    +0.042 A 
ATOM     14  C   UNL     1      -0.508  -2.700  -6.167  0.00  0.00    +0.074 A 
ATOM     15  C   UNL     1       0.821  -2.534  -6.574  0.00  0.00    +0.138 A 
ATOM     16  C   UNL     1       1.751  -2.010  -5.697  0.00  0.00    +0.079 A 
ATOM     17  C   UNL     1       1.371  -1.644  -4.417  0.00  0.00    +0.147 A 
ATOM     18  F   UNL     1       2.284  -1.127  -3.566  0.00  0.00    -0.203 F 
ATOM     19  F   UNL     1       1.194  -2.885  -7.824  0.00  0.00    -0.205 F 
BRANCH  14  20
ATOM     20  C   UNL     1      -1.504  -3.260  -7.101  0.00  0.00    +0.247 C 
ATOM     21  O   UNL     1      -1.171  -3.577  -8.227  0.00  0.00    -0.270 OA
ATOM     22  N   UNL     1      -2.783  -3.420  -6.707  0.00  0.00    -0.308 N 
ATOM     23  H   UNL     1      -3.048  -3.167  -5.809  0.00  0.00    +0.149 HD
BRANCH  22  24
ATOM     24  C   UNL     1      -3.771  -3.975  -7.634  0.00  0.00    +0.073 C 
ATOM     25  C   UNL     1      -5.143  -3.299  -7.692  0.00  0.00    +0.024 C 
ATOM     26  C   UNL     1      -4.993  -4.671  -7.030  0.00  0.00    +0.024 C 
ENDBRANCH  22  24
ENDBRANCH  14  20
ENDBRANCH  10  12
BRANCH   2  27
ATOM     27  C   UNL     1      -2.285   0.322   2.279  0.00  0.00    +0.252 A 
ATOM     28  N   UNL     1      -1.360   1.218   2.524  0.00  0.00    -0.106 NA
ATOM     29  N   UNL     1      -1.600   1.781   3.655  0.00  0.00    -0.092 NA
ATOM     30  C   UNL     1      -2.688   1.268   4.177  0.00  0.00    +0.308 A 
ATOM     31  O   UNL     1      -3.149   0.339   3.317  0.00  0.00    -0.405 OA
ATOM     32  N   UNL     1      -3.260   1.619   5.386  0.00  0.00    -0.298 N 
ATOM     33  H   UNL     1      -4.070   1.178   5.685  0.00  0.00    +0.150 HD
BRANCH  32  34
ATOM     34  C   UNL     1      -2.643   2.658   6.214  0.00  0.00    +0.104 C 
BRANCH  34  35
ATOM     35  C   UNL     1      -3.468   2.853   7.487  0.00  0.00    +0.000 C 
BRANCH  35  36
ATOM     36  C   UNL     1      -2.823   3.938   8.352  0.00  0.00    -0.078 C 
BRANCH  36  37
ATOM     37  N   UNL     1      -3.616   4.124   9.575  0.00  0.00    +0.376 N 
ATOM     38  C   UNL     1      -2.934   5.078  10.459  0.00  0.00    -0.097 C 
ATOM     39  C   UNL     1      -4.944   4.645   9.223  0.00  0.00    -0.097 C 
ATOM     40  H   UNL     1      -3.716   3.239  10.049  0.00  0.00    -0.083 HD
ENDBRANCH  36  37
ENDBRANCH  35  36
ENDBRANCH  34  35
ENDBRANCH  32  34
ENDBRANCH   2  27
BRANCH   1  42
ATOM     41  C   UNL     1      -0.642   1.772  -0.153  0.00  0.00    +0.012 C 
ATOM     42  C   UNL     1      -0.241   0.295  -0.160  0.00  0.00    +0.016 C 
ATOM     43  C   UNL     1       0.723   0.023   0.997  0.00  0.00    +0.012 C 
ENDBRANCH   1  42
TORSDOF 9
