REMARK  Name = CHEMBL510814
REMARK  6 active torsions:
REMARK  status: ('A' for Active; 'I' for Inactive)
REMARK    1  A    between atoms: C_1  and  C_2
REMARK    2  A    between atoms: C_6  and  N_8
REMARK    3  A    between atoms: N_11  and  C_12
REMARK    4  A    between atoms: C_15  and  C_18
REMARK    5  A    between atoms: C_22  and  C_28
REMARK    6  A    between atoms: C_26  and  N_27
REMARK                            x       y       z     vdW  Elec       q    Type
REMARK                         _______ _______ _______ _____ _____    ______ ____
ROOT
ATOM      1  C   UNL     1       0.005 -10.471   3.640  0.00  0.00    +0.040 A 
ATOM      2  C   UNL     1      -1.078 -11.203   3.123  0.00  0.00    +0.125 A 
ATOM      3  N   UNL     1      -1.049 -12.516   3.124  0.00  0.00    -0.235 NA
ATOM      4  C   UNL     1      -0.001 -13.189   3.612  0.00  0.00    +0.165 A 
ATOM      5  C   UNL     1       0.268 -14.559   3.726  0.00  0.00    +0.046 A 
ATOM      6  C   UNL     1       1.530 -14.686   4.319  0.00  0.00    +0.145 A 
ATOM      7  N   UNL     1       2.008 -13.489   4.556  0.00  0.00    -0.171 NA
ATOM      8  N   UNL     1       1.083 -12.530   4.129  0.00  0.00    -0.200 N 
ATOM      9  C   UNL     1       1.102 -11.161   4.145  0.00  0.00    +0.129 A 
ENDROOT
BRANCH   5  10
ATOM     10  C   UNL     1      -0.618 -15.667   3.299  0.00  0.00    -0.009 A 
ATOM     11  C   UNL     1      -1.958 -15.680   3.685  0.00  0.00    +0.012 A 
ATOM     12  C   UNL     1      -2.781 -16.713   3.286  0.00  0.00    +0.050 A 
ATOM     13  C   UNL     1      -2.281 -17.740   2.501  0.00  0.00    +0.166 A 
ATOM     14  C   UNL     1      -0.943 -17.733   2.111  0.00  0.00    +0.167 A 
ATOM     15  C   UNL     1      -0.115 -16.697   2.504  0.00  0.00    +0.058 A 
ATOM     16  O   UNL     1      -0.704 -18.842   1.352  0.00  0.00    -0.453 OA
ATOM     17  C   UNL     1      -1.800 -19.736   1.621  0.00  0.00    +0.466 C 
ATOM     18  O   UNL     1      -2.879 -18.855   1.985  0.00  0.00    -0.453 OA
ENDBRANCH   5  10
BRANCH   1  22
ATOM     19  C   UNL     1      -0.066  -6.218   3.647  0.00  0.00    +0.035 A 
ATOM     20  C   UNL     1      -0.055  -6.910   2.442  0.00  0.00    +0.024 A 
ATOM     21  C   UNL     1      -0.032  -8.289   2.437  0.00  0.00    +0.010 A 
ATOM     22  C   UNL     1      -0.020  -8.989   3.643  0.00  0.00    -0.013 A 
ATOM     23  C   UNL     1      -0.031  -8.292   4.851  0.00  0.00    +0.010 A 
ATOM     24  C   UNL     1      -0.049  -6.914   4.850  0.00  0.00    +0.024 A 
BRANCH  19  28
ATOM     25  N   UNL     1      -0.678  -2.809   2.618  0.00  0.00    -0.269 N 
ATOM     26  C   UNL     1      -0.743  -4.154   2.676  0.00  0.00    +0.308 C 
ATOM     27  O   UNL     1      -1.390  -4.768   1.849  0.00  0.00    -0.252 OA
ATOM     28  N   UNL     1      -0.089  -4.819   3.649  0.00  0.00    -0.269 N 
ATOM     29  H   UNL     1      -0.103  -2.325   3.230  0.00  0.00    +0.156 HD
ATOM     30  H   UNL     1       0.364  -4.327   4.352  0.00  0.00    +0.156 HD
BRANCH  25  36
ATOM     31  C   UNL     1      -1.186   1.025  -0.417  0.00  0.00    +0.044 C 
ATOM     32  C   UNL     1      -1.712  -0.251   0.188  0.00  0.00    -0.049 A 
ATOM     33  C   UNL     1      -2.952  -0.734  -0.189  0.00  0.00    +0.003 A 
ATOM     34  C   UNL     1      -3.438  -1.904   0.363  0.00  0.00    +0.002 A 
ATOM     35  C   UNL     1      -2.687  -2.595   1.294  0.00  0.00    +0.023 A 
ATOM     36  C   UNL     1      -1.442  -2.112   1.675  0.00  0.00    +0.035 A 
ATOM     37  C   UNL     1      -0.954  -0.939   1.114  0.00  0.00    +0.026 A 
ENDBRANCH  25  36
ENDBRANCH  19  28
ENDBRANCH   1  22
BRANCH   9  38
ATOM     38  N   UNL     1       2.184 -10.481   4.656  0.00  0.00    -0.343 N 
ATOM     39  H   UNL     1       2.186  -9.511   4.666  0.00  0.00    +0.144 HD
ATOM     40  H   UNL     1       2.944 -10.971   5.005  0.00  0.00    +0.144 HD
ENDBRANCH   9  38
TORSDOF 5
