REMARK  Name = CHEMBL189059
REMARK  14 active torsions:
REMARK  status: ('A' for Active; 'I' for Inactive)
REMARK    1  A    between atoms: C_1  and  C_2
REMARK    2  A    between atoms: C_2  and  C_3
REMARK    3  A    between atoms: C_2  and  C_4
REMARK    4  A    between atoms: C_2  and  N_5
REMARK    5  A    between atoms: C_10  and  C_30
REMARK    6  A    between atoms: N_19  and  C_20
REMARK    7  A    between atoms: C_20  and  C_21
REMARK    8  A    between atoms: C_21  and  C_22
REMARK    9  A    between atoms: C_22  and  N_23
REMARK   10  A    between atoms: N_26  and  C_29
REMARK   11  A    between atoms: C_32  and  O_38
REMARK   12  A    between atoms: C_34  and  O_36
REMARK   13  A    between atoms: O_36  and  C_37
REMARK   14  A    between atoms: O_38  and  C_39
REMARK                            x       y       z     vdW  Elec       q    Type
REMARK                         _______ _______ _______ _____ _____    ______ ____
ROOT
ATOM      1  N   UNL     1       0.688  -0.476  -1.203  0.00  0.00    -0.294 N 
ATOM      2  C   UNL     1       1.972  -0.132  -1.427  0.00  0.00    +0.305 C 
ATOM      3  O   UNL     1       2.560   0.570  -0.629  0.00  0.00    -0.252 OA
ATOM      4  N   UNL     1       2.602  -0.567  -2.536  0.00  0.00    -0.254 N 
ATOM      5  C   UNL     1       3.924  -0.212  -2.766  0.00  0.00    +0.136 A 
ATOM      6  C   UNL     1       4.567  -0.671  -3.935  0.00  0.00    +0.023 A 
ATOM      7  C   UNL     1       5.887  -0.319  -4.169  0.00  0.00    +0.025 A 
ATOM      8  C   UNL     1       6.531   0.489  -3.218  0.00  0.00    +0.038 A 
ATOM      9  C   UNL     1       7.868   0.896  -3.373  0.00  0.00    +0.126 A 
ATOM     10  N   UNL     1       8.406   1.655  -2.440  0.00  0.00    -0.222 NA
ATOM     11  C   UNL     1       7.711   2.035  -1.370  0.00  0.00    +0.217 A 
ATOM     12  N   UNL     1       6.455   1.684  -1.173  0.00  0.00    -0.195 NA
ATOM     13  C   UNL     1       5.820   0.913  -2.066  0.00  0.00    +0.167 A 
ATOM     14  N   UNL     1       4.548   0.549  -1.891  0.00  0.00    -0.212 NA
ATOM     15  N   UNL     1       8.332   2.831  -0.426  0.00  0.00    -0.313 N 
ATOM     16  H   UNL     1       0.218  -1.037  -1.840  0.00  0.00    +0.151 HD
ATOM     17  H   UNL     1       2.132  -1.127  -3.173  0.00  0.00    +0.158 HD
ATOM     18  H   UNL     1       7.844   3.120   0.361  0.00  0.00    +0.149 HD
ENDROOT
BRANCH   6  19
ATOM     19  C   UNL     1       3.838  -1.524  -4.905  0.00  0.00    -0.008 A 
ATOM     20  C   UNL     1       3.139  -2.645  -4.461  0.00  0.00    +0.054 A 
ATOM     21  C   UNL     1       2.458  -3.439  -5.370  0.00  0.00    +0.124 A 
ATOM     22  C   UNL     1       2.471  -3.119  -6.719  0.00  0.00    +0.091 A 
ATOM     23  C   UNL     1       3.166  -2.004  -7.164  0.00  0.00    +0.124 A 
ATOM     24  C   UNL     1       3.844  -1.202  -6.260  0.00  0.00    +0.054 A 
BRANCH  23  25
ATOM     25  O   UNL     1       3.177  -1.694  -8.487  0.00  0.00    -0.495 OA
ATOM     26  C   UNL     1       2.452  -2.560  -9.363  0.00  0.00    +0.277 C 
ENDBRANCH  23  25
BRANCH  21  27
ATOM     27  O   UNL     1       1.777  -4.533  -4.938  0.00  0.00    -0.495 OA
ATOM     28  C   UNL     1       1.097  -5.307  -5.929  0.00  0.00    +0.277 C 
ENDBRANCH  21  27
ENDBRANCH   6  19
BRANCH   1  30
ATOM     29  C   UNL     1      -0.019   1.526   0.010  0.00  0.00    +0.031 C 
ATOM     30  C   UNL     1       0.002  -0.004   0.002  0.00  0.00    +0.028 C 
ATOM     31  C   UNL     1       0.742  -0.511   1.242  0.00  0.00    +0.031 C 
ATOM     32  C   UNL     1      -1.433  -0.534   0.013  0.00  0.00    +0.031 C 
ENDBRANCH   1  30
BRANCH  15  33
ATOM     33  C   UNL     1       9.726   3.239  -0.614  0.00  0.00    +0.102 C 
BRANCH  33  34
ATOM     34  C   UNL     1      10.167   4.108   0.566  0.00  0.00    +0.000 C 
BRANCH  34  35
ATOM     35  C   UNL     1      11.623   4.534   0.369  0.00  0.00    -0.077 C 
BRANCH  35  36
ATOM     36  N   UNL     1      12.047   5.368   1.501  0.00  0.00    +0.381 N 
ATOM     37  C   UNL     1      11.273   6.617   1.505  0.00  0.00    -0.063 C 
ATOM     38  C   UNL     1      11.700   7.478   2.696  0.00  0.00    +0.065 C 
ATOM     39  N   UNL     1      13.136   7.773   2.593  0.00  0.00    -0.309 NA
ATOM     40  C   UNL     1      13.923   6.531   2.563  0.00  0.00    +0.065 C 
ATOM     41  C   UNL     1      13.477   5.678   1.374  0.00  0.00    -0.063 C 
ATOM     42  C   UNL     1      13.574   8.647   3.689  0.00  0.00    +0.104 C 
ATOM     43  H   UNL     1      11.886   4.871   2.364  0.00  0.00    -0.082 HD
ENDBRANCH  35  36
ENDBRANCH  34  35
ENDBRANCH  33  34
ENDBRANCH  15  33
TORSDOF 8
