REMARK  Name = CHEMBL389333
REMARK  9 active torsions:
REMARK  status: ('A' for Active; 'I' for Inactive)
REMARK    1  A    between atoms: C_1  and  N_2
REMARK    2  A    between atoms: N_5  and  C_8
REMARK    3  A    between atoms: C_8  and  C_9
REMARK    4  A    between atoms: C_9  and  N_11
REMARK    5  A    between atoms: C_17  and  O_22
REMARK    6  A    between atoms: O_22  and  C_23
REMARK    7  A    between atoms: C_26  and  N_29
REMARK    8  A    between atoms: N_32  and  C_33
REMARK    9  A    between atoms: C_35  and  C_40
REMARK                            x       y       z     vdW  Elec       q    Type
REMARK                         _______ _______ _______ _____ _____    ______ ____
ROOT
ATOM      1  O   UNL     1       3.106  -6.684   9.174  0.00  0.00    -0.456 OA
ENDROOT
BRANCH   1   8
ATOM      2  N   UNL     1      -0.036  -5.914   2.790  0.00  0.00    -0.146 NA
ATOM      3  C   UNL     1       0.538  -6.307   3.923  0.00  0.00    +0.198 A 
ATOM      4  N   UNL     1       0.967  -5.483   4.916  0.00  0.00    -0.326 N 
ATOM      5  H   UNL     1       0.905  -4.515   4.916  0.00  0.00    +0.169 HD
ATOM      6  C   UNL     1       1.508  -6.266   5.930  0.00  0.00    +0.069 A 
ATOM      7  C   UNL     1       2.082  -5.961   7.156  0.00  0.00    +0.074 A 
ATOM      8  C   UNL     1       2.543  -6.980   7.973  0.00  0.00    +0.131 A 
ATOM      9  C   UNL     1       2.432  -8.305   7.568  0.00  0.00    +0.048 A 
ATOM     10  C   UNL     1       1.861  -8.613   6.350  0.00  0.00    +0.031 A 
ATOM     11  C   UNL     1       1.397  -7.598   5.525  0.00  0.00    +0.066 A 
ATOM     12  N   UNL     1       0.785  -7.596   4.274  0.00  0.00    -0.326 N 
ATOM     13  H   UNL     1       0.573  -8.380   3.744  0.00  0.00    +0.169 HD
BRANCH   2  14
ATOM     14  C   UNL     1      -0.133  -4.618   2.508  0.00  0.00    +0.253 C 
ATOM     15  O   UNL     1       0.220  -3.790   3.325  0.00  0.00    -0.272 OA
BRANCH  14  16
ATOM     16  C   UNL     1      -0.679  -4.176   1.175  0.00  0.00    +0.182 C 
BRANCH  16  21
ATOM     17  C   UNL     1      -0.108   1.281  -0.107  0.00  0.00    -0.096 C 
ATOM     18  N   UNL     1      -0.078  -0.187  -0.090  0.00  0.00    +0.379 N 
ATOM     19  C   UNL     1      -1.453  -0.705  -0.068  0.00  0.00    -0.064 C 
ATOM     20  C   UNL     1      -1.422  -2.235  -0.069  0.00  0.00    +0.066 C 
ATOM     21  N   UNL     1      -0.682  -2.708   1.110  0.00  0.00    -0.298 NA
ATOM     22  C   UNL     1       0.688  -2.178   1.114  0.00  0.00    +0.066 C 
ATOM     23  C   UNL     1       0.640  -0.648   1.105  0.00  0.00    -0.064 C 
ATOM     24  H   UNL     1       0.394  -0.523  -0.916  0.00  0.00    -0.082 HD
ENDBRANCH  16  21
ENDBRANCH  14  16
ENDBRANCH   2  14
ENDBRANCH   1   8
BRANCH   1  25
ATOM     25  C   UNL     1       2.283  -6.316  10.192  0.00  0.00    +0.129 A 
ATOM     26  C   UNL     1       2.803  -6.097  11.460  0.00  0.00    +0.048 A 
ATOM     27  C   UNL     1       1.967  -5.723  12.493  0.00  0.00    +0.027 A 
ATOM     28  C   UNL     1       0.606  -5.567  12.264  0.00  0.00    +0.035 A 
ATOM     29  C   UNL     1       0.087  -5.787  10.995  0.00  0.00    +0.027 A 
ATOM     30  C   UNL     1       0.924  -6.155   9.961  0.00  0.00    +0.048 A 
BRANCH  28  31
ATOM     31  N   UNL     1      -0.242  -5.189  13.313  0.00  0.00    -0.269 N 
ATOM     32  C   UNL     1       0.199  -4.343  14.265  0.00  0.00    +0.308 C 
ATOM     33  O   UNL     1       1.296  -3.829  14.161  0.00  0.00    -0.252 OA
ATOM     34  N   UNL     1      -0.577  -4.065  15.331  0.00  0.00    -0.267 N 
ATOM     35  H   UNL     1      -1.147  -5.537  13.354  0.00  0.00    +0.156 HD
ATOM     36  H   UNL     1      -1.428  -4.518  15.444  0.00  0.00    +0.156 HD
BRANCH  34  37
ATOM     37  C   UNL     1      -0.155  -3.123  16.278  0.00  0.00    +0.071 A 
ATOM     38  C   UNL     1       1.198  -2.867  16.449  0.00  0.00    +0.038 A 
ATOM     39  C   UNL     1       1.612  -1.938  17.384  0.00  0.00    +0.057 A 
ATOM     40  C   UNL     1       0.680  -1.262  18.149  0.00  0.00    +0.015 A 
ATOM     41  C   UNL     1      -0.669  -1.513  17.983  0.00  0.00    +0.041 A 
ATOM     42  C   UNL     1      -1.091  -2.438  17.045  0.00  0.00    +0.145 A 
ATOM     43  F   UNL     1      -2.410  -2.680  16.878  0.00  0.00    -0.204 F 
BRANCH  39  44
ATOM     44  C   UNL     1       3.082  -1.660  17.569  0.00  0.00    +0.417 C 
ATOM     45  F   UNL     1       3.473  -0.626  16.712  0.00  0.00    -0.166 F 
ATOM     46  F   UNL     1       3.321  -1.282  18.895  0.00  0.00    -0.166 F 
ATOM     47  F   UNL     1       3.815  -2.814  17.273  0.00  0.00    -0.166 F 
ENDBRANCH  39  44
ENDBRANCH  34  37
ENDBRANCH  28  31
ENDBRANCH   1  25
TORSDOF 8
