REMARK  Name = CHEMBL244100
REMARK  8 active torsions:
REMARK  status: ('A' for Active; 'I' for Inactive)
REMARK    1  A    between atoms: C_1  and  O_2
REMARK    2  A    between atoms: O_2  and  C_3
REMARK    3  A    between atoms: C_3  and  N_5
REMARK    4  A    between atoms: C_11  and  C_16
REMARK    5  A    between atoms: C_16  and  C_18
REMARK    6  A    between atoms: C_21  and  N_24
REMARK    7  A    between atoms: N_27  and  C_28
REMARK    8  A    between atoms: C_30  and  C_35
REMARK                            x       y       z     vdW  Elec       q    Type
REMARK                         _______ _______ _______ _____ _____    ______ ____
ROOT
ATOM      1  C   UNL     1       4.618  -4.678  -8.063  0.00  0.00    +0.022 A 
ATOM      2  C   UNL     1       4.141  -5.882  -7.535  0.00  0.00    +0.013 A 
ATOM      3  C   UNL     1       4.372  -7.063  -8.202  0.00  0.00    +0.024 A 
ATOM      4  C   UNL     1       5.078  -7.061  -9.401  0.00  0.00    +0.035 A 
ATOM      5  C   UNL     1       5.554  -5.865  -9.930  0.00  0.00    +0.024 A 
ATOM      6  C   UNL     1       5.323  -4.679  -9.271  0.00  0.00    +0.013 A 
ENDROOT
BRANCH   4   7
ATOM      7  N   UNL     1       5.310  -8.260 -10.073  0.00  0.00    -0.269 N 
ATOM      8  C   UNL     1       4.392  -9.246 -10.029  0.00  0.00    +0.308 C 
ATOM      9  O   UNL     1       3.323  -9.057  -9.482  0.00  0.00    -0.252 OA
ATOM     10  N   UNL     1       4.659 -10.441 -10.592  0.00  0.00    -0.267 N 
ATOM     11  H   UNL     1       6.132  -8.385 -10.573  0.00  0.00    +0.156 HD
ATOM     12  H   UNL     1       5.535 -10.614 -10.971  0.00  0.00    +0.156 HD
BRANCH  10  13
ATOM     13  C   UNL     1       3.672 -11.434 -10.628  0.00  0.00    +0.071 A 
ATOM     14  C   UNL     1       2.675 -11.460  -9.663  0.00  0.00    +0.038 A 
ATOM     15  C   UNL     1       1.702 -12.441  -9.701  0.00  0.00    +0.057 A 
ATOM     16  C   UNL     1       1.720 -13.396 -10.701  0.00  0.00    +0.015 A 
ATOM     17  C   UNL     1       2.711 -13.374 -11.665  0.00  0.00    +0.041 A 
ATOM     18  C   UNL     1       3.685 -12.393 -11.636  0.00  0.00    +0.145 A 
ATOM     19  F   UNL     1       4.650 -12.368 -12.581  0.00  0.00    -0.204 F 
BRANCH  15  20
ATOM     20  C   UNL     1       0.621 -12.469  -8.653  0.00  0.00    +0.417 C 
ATOM     21  F   UNL     1      -0.467 -11.701  -9.084  0.00  0.00    -0.166 F 
ATOM     22  F   UNL     1       0.206 -13.789  -8.446  0.00  0.00    -0.166 F 
ATOM     23  F   UNL     1       1.118 -11.943  -7.456  0.00  0.00    -0.166 F 
ENDBRANCH  15  20
ENDBRANCH  10  13
ENDBRANCH   4   7
BRANCH   1  24
ATOM     24  C   UNL     1       4.372  -3.409  -7.352  0.00  0.00    +0.193 C 
ATOM     25  O   UNL     1       4.462  -2.352  -7.946  0.00  0.00    -0.287 OA
BRANCH  24  32
ATOM     26  N   UNL     1       3.799  -5.490  -0.410  0.00  0.00    -0.109 NA
ATOM     27  C   UNL     1       3.768  -4.904  -1.600  0.00  0.00    +0.201 A 
ATOM     28  N   UNL     1       4.334  -5.396  -2.735  0.00  0.00    -0.326 N 
ATOM     29  H   UNL     1       4.825  -6.229  -2.811  0.00  0.00    +0.169 HD
ATOM     30  C   UNL     1       4.085  -4.497  -3.769  0.00  0.00    +0.066 A 
ATOM     31  C   UNL     1       4.420  -4.489  -5.111  0.00  0.00    +0.039 A 
ATOM     32  C   UNL     1       4.018  -3.424  -5.920  0.00  0.00    +0.024 A 
ATOM     33  C   UNL     1       3.281  -2.369  -5.370  0.00  0.00    +0.014 A 
ATOM     34  C   UNL     1       2.950  -2.379  -4.035  0.00  0.00    +0.028 A 
ATOM     35  C   UNL     1       3.347  -3.439  -3.226  0.00  0.00    +0.065 A 
ATOM     36  N   UNL     1       3.159  -3.719  -1.881  0.00  0.00    -0.326 N 
ATOM     37  H   UNL     1       2.678  -3.164  -1.247  0.00  0.00    +0.169 HD
BRANCH  26  38
ATOM     38  C   UNL     1       4.531  -6.593  -0.226  0.00  0.00    +0.427 C 
ATOM     39  O   UNL     1       5.096  -7.112  -1.171  0.00  0.00    -0.224 OA
BRANCH  38  41
ATOM     40  C   UNL     1       5.442  -8.309   1.129  0.00  0.00    +0.282 C 
ATOM     41  O   UNL     1       4.644  -7.131   1.007  0.00  0.00    -0.452 OA
ENDBRANCH  38  41
ENDBRANCH  26  38
ENDBRANCH  24  32
ENDBRANCH   1  24
TORSDOF 7
