REMARK  Name = CHEMBL390735
REMARK  7 active torsions:
REMARK  status: ('A' for Active; 'I' for Inactive)
REMARK    1  A    between atoms: C_1  and  N_2
REMARK    2  A    between atoms: C_8  and  C_10
REMARK    3  A    between atoms: C_22  and  C_23
REMARK    4  A    between atoms: C_25  and  C_28
REMARK    5  A    between atoms: C_29  and  C_30
REMARK    6  A    between atoms: C_30  and  O_31
REMARK    7  A    between atoms: O_31  and  C_32
REMARK                            x       y       z     vdW  Elec       q    Type
REMARK                         _______ _______ _______ _____ _____    ______ ____
ROOT
ATOM      1  C   UNL     1      -0.097  -4.205   2.770  0.00  0.00    +0.037 A 
ATOM      2  C   UNL     1       1.188  -3.711   3.008  0.00  0.00    +0.014 A 
ATOM      3  C   UNL     1       1.986  -4.292   3.952  0.00  0.00    +0.011 A 
ATOM      4  C   UNL     1       1.522  -5.388   4.689  0.00  0.00    +0.004 A 
ATOM      5  C   UNL     1       0.237  -5.882   4.451  0.00  0.00    -0.033 A 
ATOM      6  C   UNL     1      -0.570  -5.296   3.506  0.00  0.00    +0.017 A 
ATOM      7  C   UNL     1       0.033  -7.047   5.388  0.00  0.00    +0.075 C 
ATOM      8  C   UNL     1       1.315  -7.169   6.176  0.00  0.00    +0.010 A 
ATOM      9  C   UNL     1       2.164  -6.192   5.750  0.00  0.00    +0.070 A 
ATOM     10  N   UNL     1       3.319  -6.315   6.471  0.00  0.00    -0.276 N 
ATOM     11  H   UNL     1       4.107  -5.755   6.387  0.00  0.00    +0.189 HD
ATOM     12  N   UNL     1       3.165  -7.390   7.354  0.00  0.00    -0.173 NA
ATOM     13  C   UNL     1       1.965  -7.903   7.179  0.00  0.00    +0.097 A 
ENDROOT
BRANCH   1  21
ATOM     14  C   UNL     1       0.390  -4.469  -3.417  0.00  0.00    -0.096 C 
ATOM     15  N   UNL     1       0.250  -3.731  -2.155  0.00  0.00    +0.380 N 
ATOM     16  C   UNL     1       0.991  -4.429  -1.096  0.00  0.00    -0.060 C 
ATOM     17  C   UNL     1       0.941  -3.601   0.192  0.00  0.00    +0.089 C 
ATOM     18  N   UNL     1      -0.467  -3.327   0.516  0.00  0.00    -0.301 N 
ATOM     19  C   UNL     1      -1.328  -2.776  -0.542  0.00  0.00    +0.089 C 
ATOM     20  C   UNL     1      -1.171  -3.643  -1.796  0.00  0.00    -0.060 C 
ATOM     21  C   UNL     1      -0.956  -3.574   1.748  0.00  0.00    +0.247 C 
ATOM     22  O   UNL     1      -2.103  -3.276   2.018  0.00  0.00    -0.270 OA
ATOM     23  H   UNL     1       0.625  -2.801  -2.267  0.00  0.00    -0.082 HD
ENDBRANCH   1  21
BRANCH  13  24
ATOM     24  C   UNL     1       1.397  -9.061   7.917  0.00  0.00    +0.011 A 
ATOM     25  C   UNL     1       2.207 -10.114   8.310  0.00  0.00    +0.034 A 
ATOM     26  C   UNL     1       1.642 -11.160   8.988  0.00  0.00    +0.063 A 
ATOM     27  S   UNL     1      -0.070 -10.665   9.083  0.00  0.00    -0.088 S 
ATOM     28  C   UNL     1       0.065  -9.105   8.227  0.00  0.00    +0.056 A 
BRANCH  26  29
ATOM     29  C   UNL     1       2.264 -12.348   9.492  0.00  0.00    -0.056 C 
ATOM     30  C   UNL     1       2.775 -13.321   9.905  0.00  0.00    -0.056 C 
BRANCH  30  31
ATOM     31  C   UNL     1       3.415 -14.541  10.422  0.00  0.00    +0.318 C 
BRANCH  31  32
ATOM     32  O   UNL     1       2.434 -15.357  11.065  0.00  0.00    -0.480 OA
BRANCH  32  33
ATOM     33  C   UNL     1       2.862 -16.530  11.602  0.00  0.00    +0.122 A 
ATOM     34  C   UNL     1       4.201 -16.885  11.517  0.00  0.00    +0.046 A 
ATOM     35  C   UNL     1       4.634 -18.078  12.063  0.00  0.00    +0.004 A 
ATOM     36  C   UNL     1       3.735 -18.917  12.695  0.00  0.00    +0.000 A 
ATOM     37  C   UNL     1       2.401 -18.566  12.781  0.00  0.00    +0.004 A 
ATOM     38  C   UNL     1       1.963 -17.372  12.241  0.00  0.00    +0.046 A 
ENDBRANCH  32  33
ENDBRANCH  31  32
ENDBRANCH  30  31
ENDBRANCH  26  29
ENDBRANCH  13  24
TORSDOF 6
