REMARK  Name = CHEMBL200425
REMARK  11 active torsions:
REMARK  status: ('A' for Active; 'I' for Inactive)
REMARK    1  A    between atoms: C_1  and  N_2
REMARK    2  A    between atoms: C_5  and  C_8
REMARK    3  A    between atoms: C_8  and  O_9
REMARK    4  A    between atoms: O_9  and  C_10
REMARK    5  A    between atoms: C_15  and  O_16
REMARK    6  A    between atoms: O_16  and  C_17
REMARK    7  A    between atoms: C_18  and  N_22
REMARK    8  A    between atoms: C_26  and  O_30
REMARK    9  A    between atoms: O_30  and  C_31
REMARK   10  A    between atoms: C_31  and  C_32
REMARK   11  A    between atoms: C_31  and  C_34
REMARK                            x       y       z     vdW  Elec       q    Type
REMARK                         _______ _______ _______ _____ _____    ______ ____
ROOT
ATOM      1  C   UNL     1       0.345  -5.928   2.318  0.00  0.00    +0.164 A 
ATOM      2  C   UNL     1      -0.075  -6.665   1.248  0.00  0.00    +0.078 A 
ATOM      3  C   UNL     1       0.059  -8.060   1.272  0.00  0.00    +0.080 A 
ATOM      4  C   UNL     1       0.630  -8.686   2.412  0.00  0.00    +0.048 A 
ATOM      5  C   UNL     1       1.051  -7.908   3.494  0.00  0.00    +0.063 A 
ATOM      6  C   UNL     1       0.914  -6.549   3.442  0.00  0.00    +0.162 A 
ATOM      7  C   UNL     1       0.753 -10.100   2.408  0.00  0.00    +0.164 A 
ATOM      8  N   UNL     1       0.326 -10.762   1.335  0.00  0.00    -0.216 NA
ATOM      9  C   UNL     1      -0.198 -10.132   0.299  0.00  0.00    +0.224 A 
ATOM     10  N   UNL     1      -0.336  -8.827   0.249  0.00  0.00    -0.235 NA
ENDROOT
BRANCH   7  11
ATOM     11  N   UNL     1       1.292 -10.759   3.469  0.00  0.00    -0.228 NA
ATOM     12  C   UNL     1       0.542 -11.080   4.485  0.00  0.00    +0.098 C 
ATOM     13  C   UNL     1       1.116 -11.707   5.746  0.00  0.00    +0.142 C 
ATOM     14  C   UNL     1       0.573 -10.917   6.918  0.00  0.00    +0.203 C 
ATOM     15  C   UNL     1      -0.835 -10.474   6.903  0.00  0.00    +0.167 C 
ATOM     16  C   UNL     1      -1.548 -10.432   5.750  0.00  0.00    +0.102 C 
ATOM     17  C   UNL     1      -0.929 -10.851   4.487  0.00  0.00    +0.204 C 
ATOM     18  O   UNL     1      -1.596 -11.006   3.480  0.00  0.00    -0.286 OA
ATOM     19  O   UNL     1       1.285 -10.652   7.857  0.00  0.00    -0.288 OA
BRANCH  15  20
ATOM     20  O   UNL     1      -1.426 -10.104   8.062  0.00  0.00    -0.480 OA
BRANCH  20  21
ATOM     21  C   UNL     1      -2.823  -9.809   8.013  0.00  0.00    +0.235 C 
BRANCH  21  22
ATOM     22  C   UNL     1      -3.482 -10.241   9.325  0.00  0.00    +0.260 C 
ATOM     23  F   UNL     1      -3.401 -11.631   9.452  0.00  0.00    -0.245 F 
ENDBRANCH  21  22
BRANCH  21  24
ATOM     24  C   UNL     1      -3.021  -8.305   7.814  0.00  0.00    +0.260 C 
ATOM     25  F   UNL     1      -2.519  -7.930   6.563  0.00  0.00    -0.245 F 
ENDBRANCH  21  24
ENDBRANCH  20  21
ENDBRANCH  15  20
ENDBRANCH   7  11
BRANCH   6  26
ATOM     26  O   UNL     1       1.329  -5.790   4.490  0.00  0.00    -0.491 OA
ATOM     27  C   UNL     1       1.899  -6.480   5.604  0.00  0.00    +0.277 C 
ENDBRANCH   6  26
BRANCH   1  28
ATOM     28  O   UNL     1       0.215  -4.576   2.294  0.00  0.00    -0.488 OA
BRANCH  28  29
ATOM     29  C   UNL     1      -0.371  -4.002   1.124  0.00  0.00    +0.232 C 
BRANCH  29  34
ATOM     30  C   UNL     1       0.226   1.603   0.259  0.00  0.00    -0.096 C 
ATOM     31  N   UNL     1       0.222   0.135   0.221  0.00  0.00    +0.378 N 
ATOM     32  C   UNL     1      -1.163  -0.349   0.204  0.00  0.00    -0.079 C 
ATOM     33  C   UNL     1      -1.174  -1.874   0.083  0.00  0.00    -0.012 C 
ATOM     34  C   UNL     1      -0.434  -2.481   1.279  0.00  0.00    +0.023 C 
ATOM     35  C   UNL     1       0.987  -1.912   1.329  0.00  0.00    -0.012 C 
ATOM     36  C   UNL     1       0.917  -0.386   1.404  0.00  0.00    -0.079 C 
ATOM     37  H   UNL     1       0.696  -0.181  -0.612  0.00  0.00    -0.082 HD
ENDBRANCH  29  34
ENDBRANCH  28  29
ENDBRANCH   1  28
TORSDOF 9
