REMARK  Name = CHEMBL44915
REMARK  5 active torsions:
REMARK  status: ('A' for Active; 'I' for Inactive)
REMARK    1  A    between atoms: C_1  and  C_2
REMARK    2  A    between atoms: C_4  and  C_26
REMARK    3  A    between atoms: C_6  and  N_8
REMARK    4  A    between atoms: C_13  and  N_15
REMARK    5  A    between atoms: C_19  and  C_20
REMARK                            x       y       z     vdW  Elec       q    Type
REMARK                         _______ _______ _______ _____ _____    ______ ____
ROOT
ATOM      1  N   UNL     1      -2.289  -2.496   3.207  0.00  0.00    -0.284 N 
ATOM      2  C   UNL     1      -1.275  -2.013   4.019  0.00  0.00    +0.221 A 
ATOM      3  N   UNL     1      -0.642  -0.902   3.671  0.00  0.00    -0.223 NA
ATOM      4  C   UNL     1       0.331  -0.411   4.423  0.00  0.00    +0.118 A 
ATOM      5  C   UNL     1       0.687  -1.071   5.584  0.00  0.00    +0.066 A 
ATOM      6  C   UNL     1       0.003  -2.238   5.923  0.00  0.00    +0.144 A 
ATOM      7  N   UNL     1      -0.967  -2.671   5.126  0.00  0.00    -0.196 NA
ATOM      8  H   UNL     1      -2.798  -3.275   3.478  0.00  0.00    +0.155 HD
ENDROOT
BRANCH   1  14
ATOM      9  C   UNL     1      -0.743   0.009  -0.730  0.00  0.00    +0.044 C 
ATOM     10  C   UNL     1      -1.847  -0.635   0.067  0.00  0.00    -0.048 A 
ATOM     11  C   UNL     1      -3.149  -0.597  -0.399  0.00  0.00    +0.015 A 
ATOM     12  C   UNL     1      -4.165  -1.187   0.329  0.00  0.00    +0.057 A 
ATOM     13  C   UNL     1      -3.883  -1.817   1.525  0.00  0.00    +0.035 A 
ATOM     14  C   UNL     1      -2.577  -1.858   1.996  0.00  0.00    +0.034 A 
ATOM     15  C   UNL     1      -1.558  -1.269   1.259  0.00  0.00    +0.026 A 
BRANCH  12  16
ATOM     16  C   UNL     1      -5.582  -1.141  -0.182  0.00  0.00    +0.417 C 
ATOM     17  F   UNL     1      -5.824  -2.261  -0.985  0.00  0.00    -0.166 F 
ATOM     18  F   UNL     1      -6.469  -1.143   0.900  0.00  0.00    -0.166 F 
ATOM     19  F   UNL     1      -5.769   0.023  -0.936  0.00  0.00    -0.166 F 
ENDBRANCH  12  16
ENDBRANCH   1  14
BRANCH   6  20
ATOM     20  N   UNL     1       0.328  -2.937   7.085  0.00  0.00    -0.284 N 
ATOM     21  C   UNL     1       0.404  -2.421   8.355  0.00  0.00    +0.114 A 
ATOM     22  C   UNL     1       0.747  -3.436   9.173  0.00  0.00    +0.131 A 
ATOM     23  N   UNL     1       0.880  -4.547   8.438  0.00  0.00    -0.235 NA
ATOM     24  C   UNL     1       0.627  -4.268   7.179  0.00  0.00    +0.146 A 
BRANCH  24  25
ATOM     25  C   UNL     1       0.662  -5.229   6.055  0.00  0.00    +0.018 A 
ATOM     26  C   UNL     1       0.772  -4.769   4.742  0.00  0.00    +0.011 A 
ATOM     27  C   UNL     1       0.804  -5.670   3.699  0.00  0.00    +0.001 A 
ATOM     28  C   UNL     1       0.728  -7.028   3.951  0.00  0.00    +0.000 A 
ATOM     29  C   UNL     1       0.618  -7.492   5.250  0.00  0.00    +0.001 A 
ATOM     30  C   UNL     1       0.591  -6.601   6.304  0.00  0.00    +0.011 A 
ENDBRANCH  24  25
ENDBRANCH   6  20
TORSDOF 4
