REMARK  Name = CHEMBL194939
REMARK  8 active torsions:
REMARK  status: ('A' for Active; 'I' for Inactive)
REMARK    1  A    between atoms: C_1  and  C_2
REMARK    2  A    between atoms: C_2  and  S_3
REMARK    3  A    between atoms: S_3  and  C_6
REMARK    4  A    between atoms: C_9  and  O_29
REMARK    5  A    between atoms: C_10  and  N_12
REMARK    6  A    between atoms: C_16  and  C_18
REMARK    7  A    between atoms: C_22  and  C_24
REMARK    8  A    between atoms: O_29  and  C_30
REMARK                            x       y       z     vdW  Elec       q    Type
REMARK                         _______ _______ _______ _____ _____    ______ ____
ROOT
ATOM      1  N   UNL     1       2.840  -5.096  -0.080  0.00  0.00    -0.266 N 
ATOM      2  C   UNL     1       3.836  -4.388  -0.721  0.00  0.00    +0.292 A 
ATOM      3  N   UNL     1       3.982  -3.084  -0.696  0.00  0.00    -0.203 NA
ATOM      4  C   UNL     1       5.057  -2.755  -1.430  0.00  0.00    +0.163 A 
ATOM      5  C   UNL     1       5.587  -3.904  -1.921  0.00  0.00    +0.157 A 
ATOM      6  O   UNL     1       4.817  -4.921  -1.466  0.00  0.00    -0.424 OA
ATOM      7  H   UNL     1       2.844  -6.066  -0.100  0.00  0.00    +0.157 HD
ENDROOT
BRANCH   1  12
ATOM      8  C   UNL     1       0.731  -2.362   1.188  0.00  0.00    +0.090 A 
ATOM      9  C   UNL     1      -0.191  -3.066   1.942  0.00  0.00    +0.030 A 
ATOM     10  C   UNL     1      -0.111  -4.444   2.028  0.00  0.00    +0.049 A 
ATOM     11  C   UNL     1       0.894  -5.123   1.359  0.00  0.00    +0.141 A 
ATOM     12  C   UNL     1       1.822  -4.415   0.599  0.00  0.00    +0.079 A 
ATOM     13  C   UNL     1       1.732  -3.033   0.512  0.00  0.00    +0.054 A 
BRANCH   8  14
ATOM     14  S   UNL     1       0.623  -0.607   1.083  0.00  0.00    -0.003 S 
ATOM     15  O   UNL     1       1.949  -0.178   0.804  0.00  0.00    -0.169 OA
ATOM     16  O   UNL     1      -0.029  -0.211   2.282  0.00  0.00    -0.169 OA
BRANCH  14  18
ATOM     17  C   UNL     1      -0.616   1.219  -0.533  0.00  0.00    +0.028 C 
ATOM     18  C   UNL     1      -0.450  -0.290  -0.345  0.00  0.00    +0.168 C 
ENDBRANCH  14  18
ENDBRANCH   8  14
BRANCH  11  19
ATOM     19  O   UNL     1       0.974  -6.478   1.444  0.00  0.00    -0.493 OA
ATOM     20  C   UNL     1      -0.011  -7.138   2.241  0.00  0.00    +0.277 C 
ENDBRANCH  11  19
ENDBRANCH   1  12
BRANCH   5  21
ATOM     21  C   UNL     1       6.781  -4.022  -2.783  0.00  0.00    +0.019 A 
ATOM     22  C   UNL     1       7.486  -2.878  -3.165  0.00  0.00    +0.011 A 
ATOM     23  C   UNL     1       8.601  -2.989  -3.970  0.00  0.00    +0.001 A 
ATOM     24  C   UNL     1       9.027  -4.230  -4.404  0.00  0.00    +0.008 A 
ATOM     25  C   UNL     1       8.332  -5.379  -4.029  0.00  0.00    -0.017 A 
ATOM     26  C   UNL     1       7.210  -5.277  -3.213  0.00  0.00    +0.020 A 
BRANCH  25  27
ATOM     27  C   UNL     1       8.792  -6.711  -4.496  0.00  0.00    -0.011 A 
ATOM     28  C   UNL     1       9.919  -6.831  -5.304  0.00  0.00    +0.016 A 
ATOM     29  C   UNL     1      10.307  -8.061  -5.710  0.00  0.00    +0.046 A 
ATOM     30  S   UNL     1       9.079  -9.113  -4.955  0.00  0.00    -0.104 S 
ATOM     31  C   UNL     1       8.122  -7.847  -4.138  0.00  0.00    +0.053 A 
ENDBRANCH  25  27
ENDBRANCH   5  21
TORSDOF 6
