REMARK  Name = CHEMBL272938
REMARK  5 active torsions:
REMARK  status: ('A' for Active; 'I' for Inactive)
REMARK    1  A    between atoms: C_1  and  C_2
REMARK    2  A    between atoms: C_6  and  N_8
REMARK    3  A    between atoms: N_11  and  C_12
REMARK    4  A    between atoms: C_15  and  C_18
REMARK    5  A    between atoms: C_24  and  N_28
REMARK                            x       y       z     vdW  Elec       q    Type
REMARK                         _______ _______ _______ _____ _____    ______ ____
ROOT
ATOM      1  C   UNL     1      -0.066  -6.217   3.647  0.00  0.00    +0.035 A 
ATOM      2  C   UNL     1      -0.055  -6.908   2.442  0.00  0.00    +0.024 A 
ATOM      3  C   UNL     1      -0.032  -8.286   2.436  0.00  0.00    +0.010 A 
ATOM      4  C   UNL     1      -0.020  -8.987   3.643  0.00  0.00    -0.016 A 
ATOM      5  C   UNL     1      -0.031  -8.290   4.852  0.00  0.00    +0.010 A 
ATOM      6  C   UNL     1      -0.049  -6.912   4.851  0.00  0.00    +0.024 A 
ENDROOT
BRANCH   4   7
ATOM      7  C   UNL     1       0.004 -10.468   3.640  0.00  0.00    +0.013 A 
ATOM      8  C   UNL     1      -0.888 -11.196   2.874  0.00  0.00    +0.120 A 
ATOM      9  N   UNL     1      -0.882 -12.521   2.859  0.00  0.00    -0.260 NA
ATOM     10  C   UNL     1      -0.056 -13.266   3.546  0.00  0.00    +0.141 A 
ATOM     11  C   UNL     1       0.919 -12.681   4.380  0.00  0.00    +0.113 A 
ATOM     12  C   UNL     1       0.975 -11.210   4.443  0.00  0.00    +0.052 A 
ATOM     13  C   UNL     1       2.004 -10.891   5.312  0.00  0.00    +0.120 A 
ATOM     14  N   UNL     1       2.544 -12.044   5.747  0.00  0.00    -0.263 N 
ATOM     15  N   UNL     1       1.869 -13.131   5.177  0.00  0.00    -0.171 NA
ATOM     16  H   UNL     1       3.286 -12.112   6.368  0.00  0.00    +0.190 HD
BRANCH  13  17
ATOM     17  N   UNL     1       2.407  -9.612   5.669  0.00  0.00    -0.343 N 
ATOM     18  H   UNL     1       1.952  -8.839   5.300  0.00  0.00    +0.144 HD
ATOM     19  H   UNL     1       3.143  -9.491   6.289  0.00  0.00    +0.144 HD
ENDBRANCH  13  17
ENDBRANCH   4   7
BRANCH   1  23
ATOM     20  N   UNL     1      -0.680  -2.809   2.619  0.00  0.00    -0.269 N 
ATOM     21  C   UNL     1      -0.744  -4.154   2.676  0.00  0.00    +0.308 C 
ATOM     22  O   UNL     1      -1.392  -4.768   1.851  0.00  0.00    -0.252 OA
ATOM     23  N   UNL     1      -0.089  -4.819   3.649  0.00  0.00    -0.269 N 
ATOM     24  H   UNL     1      -0.103  -2.325   3.230  0.00  0.00    +0.156 HD
ATOM     25  H   UNL     1       0.365  -4.327   4.351  0.00  0.00    +0.156 HD
BRANCH  20  31
ATOM     26  C   UNL     1      -1.192   1.026  -0.414  0.00  0.00    +0.044 C 
ATOM     27  C   UNL     1      -1.717  -0.250   0.191  0.00  0.00    -0.049 A 
ATOM     28  C   UNL     1      -2.957  -0.734  -0.186  0.00  0.00    +0.003 A 
ATOM     29  C   UNL     1      -3.442  -1.905   0.367  0.00  0.00    +0.002 A 
ATOM     30  C   UNL     1      -2.690  -2.595   1.297  0.00  0.00    +0.023 A 
ATOM     31  C   UNL     1      -1.444  -2.112   1.676  0.00  0.00    +0.035 A 
ATOM     32  C   UNL     1      -0.958  -0.939   1.116  0.00  0.00    +0.026 A 
ENDBRANCH  20  31
ENDBRANCH   1  23
TORSDOF 4
