REMARK  Name = CHEMBL258046
REMARK  9 active torsions:
REMARK  status: ('A' for Active; 'I' for Inactive)
REMARK    1  A    between atoms: C_1  and  C_2
REMARK    2  A    between atoms: C_2  and  C_3
REMARK    3  A    between atoms: C_2  and  C_4
REMARK    4  A    between atoms: C_5  and  C_28
REMARK    5  A    between atoms: N_13  and  C_14
REMARK    6  A    between atoms: C_16  and  C_22
REMARK    7  A    between atoms: N_24  and  C_25
REMARK    8  A    between atoms: C_31  and  O_33
REMARK    9  A    between atoms: O_33  and  C_34
REMARK                            x       y       z     vdW  Elec       q    Type
REMARK                         _______ _______ _______ _____ _____    ______ ____
ROOT
ATOM      1  C   UNL     1      -1.472  -0.560  -0.000  0.00  0.00    -0.002 A 
ATOM      2  C   UNL     1      -2.371  -0.542   1.082  0.00  0.00    +0.062 A 
ATOM      3  C   UNL     1      -3.350  -1.483   0.820  0.00  0.00    +0.126 A 
ATOM      4  N   UNL     1      -3.086  -2.064  -0.363  0.00  0.00    -0.234 N 
ATOM      5  C   UNL     1      -1.935  -1.507  -0.889  0.00  0.00    +0.109 A 
ATOM      6  C   UNL     1      -1.472  -1.971  -2.144  0.00  0.00    +0.151 A 
ATOM      7  N   UNL     1      -2.152  -2.916  -2.773  0.00  0.00    -0.217 NA
ATOM      8  C   UNL     1      -3.261  -3.441  -2.255  0.00  0.00    +0.245 A 
ATOM      9  N   UNL     1      -3.737  -3.064  -1.100  0.00  0.00    -0.155 NA
ATOM     10  N   UNL     1      -0.326  -1.444  -2.705  0.00  0.00    -0.295 N 
ATOM     11  H   UNL     1       0.218  -0.820  -2.200  0.00  0.00    +0.154 HD
ENDROOT
BRANCH  10  12
ATOM     12  C   UNL     1       0.051  -1.811  -4.003  0.00  0.00    +0.069 A 
ATOM     13  C   UNL     1      -0.888  -2.335  -4.874  0.00  0.00    +0.042 A 
ATOM     14  C   UNL     1      -0.508  -2.699  -6.168  0.00  0.00    +0.074 A 
ATOM     15  C   UNL     1       0.820  -2.533  -6.575  0.00  0.00    +0.138 A 
ATOM     16  C   UNL     1       1.750  -2.009  -5.697  0.00  0.00    +0.079 A 
ATOM     17  C   UNL     1       1.371  -1.644  -4.418  0.00  0.00    +0.147 A 
ATOM     18  F   UNL     1       2.284  -1.127  -3.566  0.00  0.00    -0.203 F 
ATOM     19  F   UNL     1       1.193  -2.884  -7.825  0.00  0.00    -0.205 F 
BRANCH  14  20
ATOM     20  C   UNL     1      -1.504  -3.259  -7.102  0.00  0.00    +0.247 C 
ATOM     21  O   UNL     1      -1.172  -3.575  -8.227  0.00  0.00    -0.270 OA
ATOM     22  N   UNL     1      -2.783  -3.418  -6.707  0.00  0.00    -0.308 N 
ATOM     23  H   UNL     1      -3.049  -3.166  -5.809  0.00  0.00    +0.149 HD
BRANCH  22  24
ATOM     24  C   UNL     1      -3.772  -3.974  -7.634  0.00  0.00    +0.073 C 
ATOM     25  C   UNL     1      -5.144  -3.298  -7.692  0.00  0.00    +0.024 C 
ATOM     26  C   UNL     1      -4.994  -4.669  -7.031  0.00  0.00    +0.024 C 
ENDBRANCH  22  24
ENDBRANCH  14  20
ENDBRANCH  10  12
BRANCH   2  27
ATOM     27  C   UNL     1      -2.285   0.322   2.279  0.00  0.00    +0.254 A 
ATOM     28  N   UNL     1      -1.360   1.217   2.525  0.00  0.00    -0.104 NA
ATOM     29  N   UNL     1      -1.601   1.780   3.656  0.00  0.00    -0.071 NA
ATOM     30  C   UNL     1      -2.688   1.268   4.176  0.00  0.00    +0.417 A 
ATOM     31  O   UNL     1      -3.148   0.339   3.317  0.00  0.00    -0.389 OA
BRANCH  30  32
ATOM     32  O   UNL     1      -3.249   1.612   5.360  0.00  0.00    -0.445 OA
BRANCH  32  33
ATOM     33  C   UNL     1      -2.594   2.633   6.115  0.00  0.00    +0.175 C 
ATOM     34  C   UNL     1      -1.573   1.995   7.061  0.00  0.00    +0.025 C 
ATOM     35  C   UNL     1      -0.933   3.086   7.923  0.00  0.00    -0.079 C 
ATOM     36  N   UNL     1      -1.971   3.767   8.707  0.00  0.00    +0.379 N 
ATOM     37  C   UNL     1      -2.914   4.441   7.807  0.00  0.00    -0.079 C 
ATOM     38  C   UNL     1      -3.630   3.403   6.941  0.00  0.00    +0.025 C 
ATOM     39  H   UNL     1      -2.467   3.089   9.266  0.00  0.00    -0.086 HD
ATOM     40  H   UNL     1      -1.540   4.448   9.313  0.00  0.00    -0.086 HD
ENDBRANCH  32  33
ENDBRANCH  30  32
ENDBRANCH   2  27
BRANCH   1  42
ATOM     41  C   UNL     1      -0.642   1.772  -0.153  0.00  0.00    +0.012 C 
ATOM     42  C   UNL     1      -0.241   0.295  -0.160  0.00  0.00    +0.016 C 
ATOM     43  C   UNL     1       0.723   0.023   0.996  0.00  0.00    +0.012 C 
ENDBRANCH   1  42
TORSDOF 7
