REMARK  Name = CHEMBL244297
REMARK  7 active torsions:
REMARK  status: ('A' for Active; 'I' for Inactive)
REMARK    1  A    between atoms: C_3  and  C_6
REMARK    2  A    between atoms: C_6  and  N_8
REMARK    3  A    between atoms: C_14  and  O_19
REMARK    4  A    between atoms: O_19  and  C_20
REMARK    5  A    between atoms: C_23  and  N_26
REMARK    6  A    between atoms: N_29  and  C_30
REMARK    7  A    between atoms: C_32  and  C_37
REMARK                            x       y       z     vdW  Elec       q    Type
REMARK                         _______ _______ _______ _____ _____    ______ ____
ROOT
ATOM      1  C   UNL     1      11.900  -0.099  -0.068  0.00  0.00    +0.129 A 
ATOM      2  C   UNL     1      11.747  -1.478  -0.021  0.00  0.00    +0.048 A 
ATOM      3  C   UNL     1      12.850  -2.290   0.152  0.00  0.00    +0.027 A 
ATOM      4  C   UNL     1      14.113  -1.728   0.277  0.00  0.00    +0.035 A 
ATOM      5  C   UNL     1      14.267  -0.348   0.230  0.00  0.00    +0.027 A 
ATOM      6  C   UNL     1      13.163   0.463   0.052  0.00  0.00    +0.048 A 
ENDROOT
BRANCH   4   7
ATOM      7  N   UNL     1      15.233  -2.552   0.453  0.00  0.00    -0.269 N 
ATOM      8  C   UNL     1      15.286  -3.755  -0.153  0.00  0.00    +0.308 C 
ATOM      9  O   UNL     1      14.410  -4.083  -0.929  0.00  0.00    -0.252 OA
ATOM     10  N   UNL     1      16.310  -4.593   0.102  0.00  0.00    -0.267 N 
ATOM     11  H   UNL     1      15.970  -2.256   1.010  0.00  0.00    +0.156 HD
ATOM     12  H   UNL     1      16.978  -4.355   0.764  0.00  0.00    +0.156 HD
BRANCH  10  13
ATOM     13  C   UNL     1      16.409  -5.808  -0.588  0.00  0.00    +0.071 A 
ATOM     14  C   UNL     1      15.270  -6.407  -1.109  0.00  0.00    +0.038 A 
ATOM     15  C   UNL     1      15.371  -7.605  -1.789  0.00  0.00    +0.057 A 
ATOM     16  C   UNL     1      16.605  -8.209  -1.952  0.00  0.00    +0.015 A 
ATOM     17  C   UNL     1      17.742  -7.616  -1.435  0.00  0.00    +0.041 A 
ATOM     18  C   UNL     1      17.649  -6.413  -0.758  0.00  0.00    +0.145 A 
ATOM     19  F   UNL     1      18.761  -5.831  -0.257  0.00  0.00    -0.204 F 
BRANCH  15  20
ATOM     20  C   UNL     1      14.135  -8.255  -2.355  0.00  0.00    +0.417 C 
ATOM     21  F   UNL     1      13.925  -7.799  -3.661  0.00  0.00    -0.166 F 
ATOM     22  F   UNL     1      14.302  -9.644  -2.367  0.00  0.00    -0.166 F 
ATOM     23  F   UNL     1      13.030  -7.925  -1.562  0.00  0.00    -0.166 F 
ENDBRANCH  15  20
ENDBRANCH  10  13
ENDBRANCH   4   7
BRANCH   1  24
ATOM     24  O   UNL     1      10.814   0.700  -0.237  0.00  0.00    -0.456 OA
BRANCH  24  31
ATOM     25  N   UNL     1      12.670   7.364  -2.071  0.00  0.00    -0.140 NA
ATOM     26  C   UNL     1      12.244   6.237  -1.515  0.00  0.00    +0.199 A 
ATOM     27  N   UNL     1      12.309   5.002  -2.084  0.00  0.00    -0.326 N 
ATOM     28  H   UNL     1      12.673   4.799  -2.961  0.00  0.00    +0.169 HD
ATOM     29  C   UNL     1      11.766   4.081  -1.194  0.00  0.00    +0.069 A 
ATOM     30  C   UNL     1      11.580   2.708  -1.252  0.00  0.00    +0.074 A 
ATOM     31  C   UNL     1      10.997   2.046  -0.183  0.00  0.00    +0.131 A 
ATOM     32  C   UNL     1      10.600   2.754   0.944  0.00  0.00    +0.048 A 
ATOM     33  C   UNL     1      10.783   4.121   1.006  0.00  0.00    +0.031 A 
ATOM     34  C   UNL     1      11.366   4.791  -0.060  0.00  0.00    +0.066 A 
ATOM     35  N   UNL     1      11.679   6.130  -0.282  0.00  0.00    -0.326 N 
ATOM     36  H   UNL     1      11.520   6.861   0.336  0.00  0.00    +0.169 HD
BRANCH  25  37
ATOM     37  C   UNL     1      13.114   7.361  -3.335  0.00  0.00    +0.305 C 
ATOM     38  O   UNL     1      13.216   6.308  -3.944  0.00  0.00    -0.265 OA
BRANCH  37  41
ATOM     39  C   UNL     1      14.163  10.137  -5.468  0.00  0.00    +0.042 A 
ATOM     40  C   UNL     1      13.944   8.765  -5.264  0.00  0.00    +0.054 A 
ATOM     41  C   UNL     1      13.480   8.627  -3.989  0.00  0.00    +0.191 A 
ATOM     42  O   UNL     1      13.416   9.853  -3.433  0.00  0.00    -0.458 OA
ATOM     43  C   UNL     1      13.827  10.767  -4.322  0.00  0.00    +0.196 A 
ENDBRANCH  37  41
ENDBRANCH  25  37
ENDBRANCH  24  31
ENDBRANCH   1  24
TORSDOF 7
