REMARK  Name = CHEMBL324335
REMARK  6 active torsions:
REMARK  status: ('A' for Active; 'I' for Inactive)
REMARK    1  A    between atoms: C_3  and  O_21
REMARK    2  A    between atoms: C_6  and  C_7
REMARK    3  A    between atoms: C_11  and  C_16
REMARK    4  A    between atoms: O_21  and  C_22
REMARK    5  A    between atoms: C_22  and  C_23
REMARK    6  A    between atoms: C_23  and  N_24
REMARK                            x       y       z     vdW  Elec       q    Type
REMARK                         _______ _______ _______ _____ _____    ______ ____
ROOT
ATOM      1  C   UNL     1       0.045   1.050   0.045  0.00  0.00    +0.012 A 
ATOM      2  C   UNL     1       1.189   1.820   0.003  0.00  0.00    +0.046 A 
ATOM      3  C   UNL     1       2.437   1.214   0.026  0.00  0.00    +0.120 A 
ATOM      4  C   UNL     1       2.539  -0.169   0.091  0.00  0.00    +0.046 A 
ATOM      5  C   UNL     1       1.399  -0.945   0.134  0.00  0.00    +0.012 A 
ATOM      6  C   UNL     1       0.145  -0.339   0.111  0.00  0.00    -0.015 A 
ENDROOT
BRANCH   6   7
ATOM      7  C   UNL     1      -1.083  -1.171   0.157  0.00  0.00    +0.018 A 
ATOM      8  C   UNL     1      -1.962  -1.088   1.261  0.00  0.00    +0.123 A 
ATOM      9  N   UNL     1      -3.045  -1.826   1.296  0.00  0.00    -0.235 NA
ATOM     10  C   UNL     1      -3.340  -2.665   0.297  0.00  0.00    +0.163 A 
ATOM     11  C   UNL     1      -4.407  -3.546   0.089  0.00  0.00    +0.046 A 
ATOM     12  C   UNL     1      -4.194  -4.174  -1.141  0.00  0.00    +0.145 A 
ATOM     13  N   UNL     1      -3.078  -3.720  -1.662  0.00  0.00    -0.173 NA
ATOM     14  N   UNL     1      -2.516  -2.777  -0.795  0.00  0.00    -0.221 N 
ATOM     15  C   UNL     1      -1.382  -2.021  -0.869  0.00  0.00    +0.124 A 
BRANCH  11  16
ATOM     16  C   UNL     1      -5.553  -3.771   1.005  0.00  0.00    -0.006 A 
ATOM     17  C   UNL     1      -6.861  -3.734   0.531  0.00  0.00    +0.016 A 
ATOM     18  C   UNL     1      -7.879  -3.945   1.397  0.00  0.00    +0.046 A 
ATOM     19  S   UNL     1      -7.016  -4.208   2.937  0.00  0.00    -0.104 S 
ATOM     20  C   UNL     1      -5.347  -4.026   2.331  0.00  0.00    +0.053 A 
ENDBRANCH  11  16
ENDBRANCH   6   7
BRANCH   3  21
ATOM     21  O   UNL     1       3.562   1.975  -0.017  0.00  0.00    -0.494 OA
BRANCH  21  22
ATOM     22  C   UNL     1       4.814   1.286   0.010  0.00  0.00    +0.210 C 
BRANCH  22  23
ATOM     23  C   UNL     1       5.956   2.302  -0.044  0.00  0.00    -0.037 C 
BRANCH  23  24
ATOM     24  N   UNL     1       5.922   3.143   1.160  0.00  0.00    +0.385 N 
ATOM     25  C   UNL     1       6.927   4.209   1.042  0.00  0.00    -0.050 C 
ATOM     26  C   UNL     1       6.889   5.083   2.298  0.00  0.00    +0.141 C 
ATOM     27  O   UNL     1       7.123   4.266   3.449  0.00  0.00    -0.383 OA
ATOM     28  C   UNL     1       6.183   3.197   3.594  0.00  0.00    +0.141 C 
ATOM     29  C   UNL     1       6.219   2.320   2.341  0.00  0.00    -0.050 C 
ATOM     30  H   UNL     1       5.006   3.553   1.258  0.00  0.00    -0.081 HD
ENDBRANCH  23  24
ENDBRANCH  22  23
ENDBRANCH  21  22
ENDBRANCH   3  21
TORSDOF 6
