REMARK  Name = CHEMBL118569
REMARK  10 active torsions:
REMARK  status: ('A' for Active; 'I' for Inactive)
REMARK    1  A    between atoms: C_1  and  N_2
REMARK    2  A    between atoms: N_2  and  C_3
REMARK    3  A    between atoms: N_2  and  C_7
REMARK    4  A    between atoms: C_3  and  C_4
REMARK    5  A    between atoms: C_4  and  O_5
REMARK    6  A    between atoms: O_5  and  C_6
REMARK    7  A    between atoms: C_7  and  C_8
REMARK    8  A    between atoms: C_8  and  O_9
REMARK    9  A    between atoms: O_9  and  C_10
REMARK   10  A    between atoms: C_17  and  C_20
REMARK                            x       y       z     vdW  Elec       q    Type
REMARK                         _______ _______ _______ _____ _____    ______ ____
ROOT
ATOM      1  C   UNL     1       3.301   2.221   1.322  0.00  0.00    +0.121 A 
ATOM      2  C   UNL     1       4.478   1.488   1.193  0.00  0.00    +0.047 A 
ATOM      3  C   UNL     1       5.702   2.120   1.181  0.00  0.00    +0.030 A 
ATOM      4  C   UNL     1       5.771   3.504   1.298  0.00  0.00    +0.047 A 
ATOM      5  C   UNL     1       4.584   4.249   1.430  0.00  0.00    +0.004 A 
ATOM      6  C   UNL     1       3.347   3.596   1.435  0.00  0.00    +0.055 A 
ATOM      7  C   UNL     1       4.987   5.650   1.530  0.00  0.00    +0.036 A 
ATOM      8  C   UNL     1       6.343   5.679   1.458  0.00  0.00    +0.053 A 
ATOM      9  N   UNL     1       6.823   4.397   1.319  0.00  0.00    -0.354 N 
ATOM     10  H   UNL     1       7.760   4.157   1.246  0.00  0.00    +0.166 HD
ENDROOT
BRANCH   8  11
ATOM     11  C   UNL     1       7.173   6.897   1.518  0.00  0.00    +0.063 A 
ATOM     12  C   UNL     1       7.916   7.290   0.425  0.00  0.00    +0.025 A 
ATOM     13  C   UNL     1       8.704   8.464   0.512  0.00  0.00    -0.001 A 
ATOM     14  C   UNL     1       9.469   8.886  -0.586  0.00  0.00    +0.010 A 
ATOM     15  C   UNL     1      10.225  10.019  -0.493  0.00  0.00    +0.001 A 
ATOM     16  C   UNL     1      10.243  10.761   0.681  0.00  0.00    +0.002 A 
ATOM     17  C   UNL     1       9.501  10.366   1.772  0.00  0.00    +0.026 A 
ATOM     18  C   UNL     1       8.721   9.214   1.702  0.00  0.00    +0.049 A 
ATOM     19  N   UNL     1       7.975   8.816   2.793  0.00  0.00    -0.322 N 
ATOM     20  C   UNL     1       7.212   7.709   2.740  0.00  0.00    +0.258 A 
ATOM     21  O   UNL     1       6.556   7.376   3.712  0.00  0.00    -0.267 OA
ATOM     22  H   UNL     1       7.997   9.344   3.606  0.00  0.00    +0.169 HD
ENDBRANCH   8  11
BRANCH   1  23
ATOM     23  O   UNL     1       2.102   1.580   1.332  0.00  0.00    -0.494 OA
BRANCH  23  24
ATOM     24  C   UNL     1       2.126   0.157   1.211  0.00  0.00    +0.210 C 
BRANCH  24  25
ATOM     25  C   UNL     1       0.694  -0.382   1.242  0.00  0.00    -0.038 C 
BRANCH  25  27
ATOM     26  C   UNL     1      -1.450  -0.285   0.169  0.00  0.00    -0.096 C 
ATOM     27  N   UNL     1      -0.037   0.102   0.063  0.00  0.00    +0.381 N 
ATOM     28  H   UNL     1       0.034   1.107   0.013  0.00  0.00    -0.082 HD
BRANCH  27  29
ATOM     29  C   UNL     1       0.544  -0.490  -1.150  0.00  0.00    -0.051 C 
BRANCH  29  30
ATOM     30  C   UNL     1      -0.134   0.108  -2.384  0.00  0.00    +0.141 C 
BRANCH  30  31
ATOM     31  O   UNL     1       0.167   1.503  -2.464  0.00  0.00    -0.385 OA
ATOM     32  C   UNL     1      -0.421   2.162  -3.587  0.00  0.00    +0.193 C 
ENDBRANCH  30  31
ENDBRANCH  29  30
ENDBRANCH  27  29
ENDBRANCH  25  27
ENDBRANCH  24  25
ENDBRANCH  23  24
ENDBRANCH   1  23
TORSDOF 8
