REMARK  Name = CHEMBL459478
REMARK  9 active torsions:
REMARK  status: ('A' for Active; 'I' for Inactive)
REMARK    1  A    between atoms: C_1  and  C_2
REMARK    2  A    between atoms: C_2  and  C_3
REMARK    3  A    between atoms: C_2  and  N_4
REMARK    4  A    between atoms: C_6  and  C_9
REMARK    5  A    between atoms: C_14  and  O_18
REMARK    6  A    between atoms: O_18  and  C_19
REMARK    7  A    between atoms: C_22  and  N_26
REMARK    8  A    between atoms: C_27  and  C_29
REMARK    9  A    between atoms: N_32  and  C_35
REMARK                            x       y       z     vdW  Elec       q    Type
REMARK                         _______ _______ _______ _____ _____    ______ ____
ROOT
ATOM      1  C   UNL     1       8.286  -5.691  -3.037  0.00  0.00    +0.164 A 
ATOM      2  C   UNL     1       8.658  -5.889  -4.358  0.00  0.00    +0.051 A 
ATOM      3  C   UNL     1       9.772  -6.650  -4.655  0.00  0.00    +0.027 A 
ATOM      4  C   UNL     1      10.521  -7.216  -3.632  0.00  0.00    +0.036 A 
ATOM      5  C   UNL     1      10.149  -7.018  -2.309  0.00  0.00    +0.065 A 
ATOM      6  C   UNL     1       9.037  -6.251  -2.011  0.00  0.00    +0.167 A 
ATOM      7  F   UNL     1       8.678  -6.053  -0.724  0.00  0.00    -0.202 F 
ENDROOT
BRANCH   4   8
ATOM      8  N   UNL     1      11.650  -7.988  -3.934  0.00  0.00    -0.285 N 
ATOM      9  C   UNL     1      12.428  -7.660  -4.985  0.00  0.00    +0.229 C 
ATOM     10  O   UNL     1      12.111  -6.742  -5.711  0.00  0.00    -0.275 OA
ATOM     11  H   UNL     1      11.872  -8.758  -3.387  0.00  0.00    +0.155 HD
BRANCH   9  12
ATOM     12  C   UNL     1      13.692  -8.435  -5.256  0.00  0.00    +0.163 C 
ATOM     13  C   UNL     1      14.459  -7.819  -6.449  0.00  0.00    +0.041 C 
ATOM     14  C   UNL     1      15.928  -8.006  -6.010  0.00  0.00    +0.115 C 
ATOM     15  N   UNL     1      15.894  -8.063  -4.544  0.00  0.00    -0.271 N 
ATOM     16  C   UNL     1      14.651  -8.309  -4.093  0.00  0.00    +0.232 C 
ATOM     17  O   UNL     1      14.344  -8.413  -2.925  0.00  0.00    -0.274 OA
BRANCH  15  18
ATOM     18  C   UNL     1      17.011  -7.885  -3.720  0.00  0.00    +0.036 A 
ATOM     19  C   UNL     1      16.904  -8.084  -2.350  0.00  0.00    +0.023 A 
ATOM     20  C   UNL     1      18.009  -7.907  -1.540  0.00  0.00    +0.002 A 
ATOM     21  C   UNL     1      19.220  -7.532  -2.092  0.00  0.00    +0.000 A 
ATOM     22  C   UNL     1      19.329  -7.332  -3.456  0.00  0.00    +0.002 A 
ATOM     23  C   UNL     1      18.230  -7.514  -4.272  0.00  0.00    +0.023 A 
ENDBRANCH  15  18
ENDBRANCH   9  12
ENDBRANCH   4   8
BRANCH   1  24
ATOM     24  O   UNL     1       7.189  -4.942  -2.745  0.00  0.00    -0.452 OA
BRANCH  24  30
ATOM     25  C   UNL     1       4.061  -1.310  -1.936  0.00  0.00    +0.042 A 
ATOM     26  C   UNL     1       5.260  -0.675  -1.863  0.00  0.00    +0.046 A 
ATOM     27  C   UNL     1       6.452  -1.400  -2.047  0.00  0.00    +0.082 A 
ATOM     28  C   UNL     1       6.287  -2.779  -2.301  0.00  0.00    +0.080 A 
ATOM     29  S   UNL     1       4.527  -3.001  -2.267  0.00  0.00    -0.081 S 
ATOM     30  C   UNL     1       7.367  -3.618  -2.502  0.00  0.00    +0.146 A 
ATOM     31  C   UNL     1       8.645  -3.063  -2.447  0.00  0.00    +0.067 A 
ATOM     32  C   UNL     1       8.763  -1.707  -2.196  0.00  0.00    +0.115 A 
ATOM     33  N   UNL     1       7.722  -0.935  -2.009  0.00  0.00    -0.254 NA
BRANCH  25  36
ATOM     34  N   UNL     1       0.534  -0.520  -1.641  0.00  0.00    -0.334 N 
ATOM     35  C   UNL     1       1.533  -1.428  -1.851  0.00  0.00    +0.116 A 
ATOM     36  C   UNL     1       2.706  -0.742  -1.774  0.00  0.00    +0.095 A 
ATOM     37  N   UNL     1       2.408   0.550  -1.522  0.00  0.00    -0.235 NA
ATOM     38  C   UNL     1       1.114   0.684  -1.448  0.00  0.00    +0.200 A 
BRANCH  34  40
ATOM     39  C   UNL     1      -1.490  -0.424  -0.271  0.00  0.00    +0.030 C 
ATOM     40  C   UNL     1      -0.904  -0.801  -1.633  0.00  0.00    +0.082 C 
ATOM     41  C   UNL     1      -1.590   0.019  -2.728  0.00  0.00    +0.030 C 
ENDBRANCH  34  40
ENDBRANCH  25  36
ENDBRANCH  24  30
ENDBRANCH   1  24
TORSDOF 7
