REMARK  Name = CHEMBL204163
REMARK  3 active torsions:
REMARK  status: ('A' for Active; 'I' for Inactive)
REMARK    1  A    between atoms: C_6  and  N_7
REMARK    2  A    between atoms: C_11  and  N_14
REMARK    3  A    between atoms: C_19  and  C_21
REMARK                            x       y       z     vdW  Elec       q    Type
REMARK                         _______ _______ _______ _____ _____    ______ ____
ROOT
ATOM      1  C   UNL     1       0.006   1.388  -0.234  0.00  0.00    +0.085 A 
ATOM      2  C   UNL     1       1.199   2.063   0.005  0.00  0.00    +0.106 A 
ATOM      3  N   UNL     1       2.307   1.359   0.230  0.00  0.00    -0.334 N 
ATOM      4  C   UNL     1       2.283   0.042   0.227  0.00  0.00    +0.199 A 
ATOM      5  N   UNL     1       1.174  -0.634   0.005  0.00  0.00    -0.223 NA
ATOM      6  C   UNL     1       0.024  -0.004  -0.227  0.00  0.00    +0.126 A 
ATOM      7  N   UNL     1       1.234   3.451   0.008  0.00  0.00    -0.280 N 
ATOM      8  C   UNL     1       0.059   4.172  -0.081  0.00  0.00    +0.165 A 
ATOM      9  N   UNL     1      -1.180   3.717  -0.083  0.00  0.00    -0.232 NA
ATOM     10  C   UNL     1      -2.207   4.527  -0.175  0.00  0.00    +0.139 A 
ATOM     11  C   UNL     1      -1.917   5.880  -0.270  0.00  0.00    +0.110 A 
ATOM     12  S   UNL     1      -0.133   5.839  -0.207  0.00  0.00    -0.042 S 
ATOM     13  H   UNL     1       2.084   3.915   0.074  0.00  0.00    +0.155 HD
ATOM     14  H   UNL     1       3.143   1.822   0.397  0.00  0.00    +0.168 HD
ENDROOT
BRANCH   6  15
ATOM     15  N   UNL     1      -1.138  -0.723  -0.459  0.00  0.00    -0.315 N 
ATOM     16  C   UNL     1      -1.099  -2.193  -0.327  0.00  0.00    +0.106 C 
ATOM     17  C   UNL     1      -2.341  -2.743   0.397  0.00  0.00    +0.017 C 
ATOM     18  C   UNL     1      -2.710  -1.844   1.551  0.00  0.00    -0.015 C 
ATOM     19  C   UNL     1      -3.718  -0.801   1.077  0.00  0.00    -0.074 C 
ATOM     20  C   UNL     1      -3.114   0.390   0.461  0.00  0.00    +0.003 C 
ATOM     21  C   UNL     1      -2.340  -0.002  -0.815  0.00  0.00    +0.105 C 
BRANCH  19  22
ATOM     22  N   UNL     1      -4.522  -0.373   2.230  0.00  0.00    +0.380 N 
ATOM     23  H   UNL     1      -3.918   0.027   2.932  0.00  0.00    -0.090 HD
ATOM     24  H   UNL     1      -5.195   0.318   1.932  0.00  0.00    -0.090 HD
ATOM     25  H   UNL     1      -5.007  -1.169   2.616  0.00  0.00    -0.090 HD
ENDBRANCH  19  22
ENDBRANCH   6  15
BRANCH  11  26
ATOM     26  C   UNL     1      -2.803   7.000  -0.382  0.00  0.00    +0.108 C 
ATOM     27  N   UNL     1      -3.505   7.888  -0.470  0.00  0.00    -0.190 NA
ENDBRANCH  11  26
TORSDOF 3
