REMARK  Name = CHEMBL231371
REMARK  6 active torsions:
REMARK  status: ('A' for Active; 'I' for Inactive)
REMARK    1  A    between atoms: C_1  and  N_2
REMARK    2  A    between atoms: N_5  and  C_8
REMARK    3  A    between atoms: C_8  and  C_9
REMARK    4  A    between atoms: C_11  and  N_16
REMARK    5  A    between atoms: C_22  and  O_26
REMARK    6  A    between atoms: O_26  and  C_27
REMARK                            x       y       z     vdW  Elec       q    Type
REMARK                         _______ _______ _______ _____ _____    ______ ____
ROOT
ATOM      1  N   UNL     1      -1.821  -6.003   5.503  0.00  0.00    -0.285 N 
ATOM      2  C   UNL     1      -1.669  -5.851   6.867  0.00  0.00    +0.198 A 
ATOM      3  N   UNL     1      -0.626  -5.318   7.453  0.00  0.00    -0.214 NA
ATOM      4  C   UNL     1      -0.807  -5.325   8.801  0.00  0.00    +0.091 A 
ATOM      5  C   UNL     1      -0.027  -4.890   9.875  0.00  0.00    +0.033 A 
ATOM      6  C   UNL     1      -0.491  -5.036  11.163  0.00  0.00    +0.048 A 
ATOM      7  C   UNL     1      -1.733  -5.615  11.403  0.00  0.00    +0.132 A 
ATOM      8  C   UNL     1      -2.517  -6.051  10.348  0.00  0.00    +0.074 A 
ATOM      9  C   UNL     1      -2.061  -5.909   9.047  0.00  0.00    +0.071 A 
ATOM     10  N   UNL     1      -2.587  -6.228   7.806  0.00  0.00    -0.326 N 
ATOM     11  H   UNL     1      -2.657  -6.336   5.142  0.00  0.00    +0.155 HD
ATOM     12  H   UNL     1      -3.447  -6.644   7.635  0.00  0.00    +0.169 HD
ENDROOT
BRANCH   1  15
ATOM     13  C   UNL     1       0.005  -4.923   2.500  0.00  0.00    -0.013 A 
ATOM     14  C   UNL     1      -1.036  -5.246   3.348  0.00  0.00    +0.029 A 
ATOM     15  C   UNL     1      -0.768  -5.676   4.642  0.00  0.00    +0.034 A 
ATOM     16  C   UNL     1       0.546  -5.780   5.078  0.00  0.00    +0.025 A 
ATOM     17  C   UNL     1       1.583  -5.456   4.226  0.00  0.00    +0.022 A 
ATOM     18  C   UNL     1       1.314  -5.033   2.936  0.00  0.00    +0.045 A 
ATOM     19 CL   UNL     1       2.620  -4.633   1.865  0.00  0.00    -0.083 Cl
BRANCH  13  20
ATOM     20  C   UNL     1      -0.284  -4.458   1.096  0.00  0.00    +0.121 C 
BRANCH  20  25
ATOM     21  C   UNL     1      -0.172  -8.302  -3.021  0.00  0.00    -0.096 C 
ATOM     22  N   UNL     1      -0.523  -7.212  -2.101  0.00  0.00    +0.379 N 
ATOM     23  C   UNL     1       0.506  -6.166  -2.167  0.00  0.00    -0.064 C 
ATOM     24  C   UNL     1       0.131  -5.022  -1.222  0.00  0.00    +0.066 C 
ATOM     25  N   UNL     1       0.019  -5.539   0.149  0.00  0.00    -0.302 NA
ATOM     26  C   UNL     1      -0.990  -6.604   0.225  0.00  0.00    +0.066 C 
ATOM     27  C   UNL     1      -0.606  -7.736  -0.731  0.00  0.00    -0.064 C 
ATOM     28  H   UNL     1      -1.416  -6.823  -2.366  0.00  0.00    -0.082 HD
ENDBRANCH  20  25
ENDBRANCH  13  20
ENDBRANCH   1  15
BRANCH   7  29
ATOM     29  O   UNL     1      -2.179  -5.754  12.680  0.00  0.00    -0.437 OA
BRANCH  29  30
ATOM     30  C   UNL     1      -2.091  -6.977  13.255  0.00  0.00    +0.233 A 
ATOM     31  C   UNL     1      -2.643  -7.218  14.520  0.00  0.00    +0.080 A 
ATOM     32  C   UNL     1      -3.372  -6.416  15.502  0.00  0.00    +0.034 A 
ATOM     33  C   UNL     1      -3.640  -7.224  16.541  0.00  0.00    +0.085 A 
ATOM     34  N   UNL     1      -3.139  -8.476  16.297  0.00  0.00    -0.346 N 
ATOM     35  H   UNL     1      -3.209  -9.231  16.903  0.00  0.00    +0.167 HD
ATOM     36  C   UNL     1      -2.526  -8.506  15.075  0.00  0.00    +0.145 A 
ATOM     37  N   UNL     1      -1.894  -9.445  14.374  0.00  0.00    -0.218 NA
ATOM     38  C   UNL     1      -1.391  -9.174  13.189  0.00  0.00    +0.227 A 
ATOM     39  N   UNL     1      -1.485  -7.980  12.630  0.00  0.00    -0.200 NA
ENDBRANCH  29  30
ENDBRANCH   7  29
TORSDOF 5
