REMARK  Name = CHEMBL393462
REMARK  11 active torsions:
REMARK  status: ('A' for Active; 'I' for Inactive)
REMARK    1  A    between atoms: C_1  and  C_2
REMARK    2  A    between atoms: C_2  and  C_3
REMARK    3  A    between atoms: C_2  and  C_4
REMARK    4  A    between atoms: C_2  and  N_29
REMARK    5  A    between atoms: C_7  and  C_10
REMARK    6  A    between atoms: N_16  and  C_17
REMARK    7  A    between atoms: C_20  and  C_23
REMARK    8  A    between atoms: C_23  and  C_24
REMARK    9  A    between atoms: C_24  and  N_25
REMARK   10  A    between atoms: N_25  and  C_26
REMARK   11  A    between atoms: N_25  and  C_27
REMARK                            x       y       z     vdW  Elec       q    Type
REMARK                         _______ _______ _______ _____ _____    ______ ____
ROOT
ATOM      1  C   UNL     1      -5.386  -2.052   0.063  0.00  0.00    +0.094 A 
ATOM      2  C   UNL     1      -5.959  -2.504  -1.130  0.00  0.00    +0.085 A 
ATOM      3  C   UNL     1      -7.318  -2.768  -1.149  0.00  0.00    +0.136 A 
ATOM      4  N   UNL     1      -8.028  -2.587  -0.047  0.00  0.00    -0.221 NA
ATOM      5  C   UNL     1      -7.458  -2.157   1.069  0.00  0.00    +0.220 A 
ATOM      6  N   UNL     1      -6.162  -1.897   1.133  0.00  0.00    -0.213 NA
ATOM      7  N   UNL     1      -8.239  -1.979   2.200  0.00  0.00    -0.284 N 
ATOM      8 CL   UNL     1      -4.990  -2.728  -2.553  0.00  0.00    -0.080 Cl
ATOM      9  H   UNL     1      -7.852  -1.589   3.000  0.00  0.00    +0.155 HD
ENDROOT
BRANCH   1  13
ATOM     10  C   UNL     1      -1.226  -1.202   0.273  0.00  0.00    -0.059 A 
ATOM     11  C   UNL     1      -2.122  -0.440   1.000  0.00  0.00    +0.003 A 
ATOM     12  C   UNL     1      -3.474  -0.711   0.935  0.00  0.00    +0.010 A 
ATOM     13  C   UNL     1      -3.935  -1.755   0.136  0.00  0.00    +0.002 A 
ATOM     14  C   UNL     1      -3.027  -2.520  -0.595  0.00  0.00    +0.010 A 
ATOM     15  C   UNL     1      -1.678  -2.236  -0.527  0.00  0.00    +0.003 A 
BRANCH  10  17
ATOM     16  C   UNL     1       0.452   0.592   0.615  0.00  0.00    -0.006 C 
ATOM     17  C   UNL     1       0.249  -0.900   0.347  0.00  0.00    -0.051 C 
ATOM     18  C   UNL     1       0.879  -1.712   1.480  0.00  0.00    -0.006 C 
BRANCH  17  19
ATOM     19  N   UNL     1       0.887  -1.260  -0.926  0.00  0.00    +0.384 N 
ATOM     20  H   UNL     1       1.875  -1.058  -0.877  0.00  0.00    -0.089 HD
ATOM     21  H   UNL     1       0.754  -2.244  -1.103  0.00  0.00    -0.089 HD
ATOM     22  H   UNL     1       0.472  -0.724  -1.674  0.00  0.00    -0.089 HD
ENDBRANCH  17  19
ENDBRANCH  10  17
ENDBRANCH   1  13
BRANCH   7  23
ATOM     23  C   UNL     1      -9.584  -2.362   2.189  0.00  0.00    +0.034 A 
ATOM     24  C   UNL     1      -9.970  -3.530   1.544  0.00  0.00    +0.023 A 
ATOM     25  C   UNL     1     -11.299  -3.905   1.534  0.00  0.00    +0.005 A 
ATOM     26  C   UNL     1     -12.245  -3.119   2.166  0.00  0.00    -0.049 A 
ATOM     27  C   UNL     1     -11.864  -1.955   2.809  0.00  0.00    +0.005 A 
ATOM     28  C   UNL     1     -10.536  -1.578   2.828  0.00  0.00    +0.023 A 
BRANCH  26  29
ATOM     29  C   UNL     1     -13.694  -3.531   2.154  0.00  0.00    +0.016 C 
BRANCH  29  30
ATOM     30  C   UNL     1     -13.985  -4.411   3.371  0.00  0.00    -0.075 C 
BRANCH  30  31
ATOM     31  N   UNL     1     -15.398  -4.813   3.358  0.00  0.00    +0.376 N 
ATOM     32  C   UNL     1     -15.654  -5.667   2.191  0.00  0.00    -0.097 C 
ATOM     33  C   UNL     1     -15.706  -5.558   4.587  0.00  0.00    -0.097 C 
ATOM     34  H   UNL     1     -15.981  -3.991   3.308  0.00  0.00    -0.083 HD
ENDBRANCH  30  31
ENDBRANCH  29  30
ENDBRANCH  26  29
ENDBRANCH   7  23
TORSDOF 7
