REMARK  Name = CHEMBL203346
REMARK  5 active torsions:
REMARK  status: ('A' for Active; 'I' for Inactive)
REMARK    1  A    between atoms: C_1  and  C_2
REMARK    2  A    between atoms: C_2  and  C_3
REMARK    3  A    between atoms: C_2  and  C_4
REMARK    4  A    between atoms: C_7  and  N_10
REMARK    5  A    between atoms: C_18  and  C_21
REMARK                            x       y       z     vdW  Elec       q    Type
REMARK                         _______ _______ _______ _____ _____    ______ ____
ROOT
ATOM      1  N   UNL     1      -5.319  -1.965   0.041  0.00  0.00    -0.298 N 
ATOM      2  C   UNL     1      -5.802  -2.680  -1.042  0.00  0.00    +0.153 A 
ATOM      3  C   UNL     1      -7.155  -3.087  -1.081  0.00  0.00    +0.026 A 
ATOM      4  C   UNL     1      -8.064  -2.801  -0.057  0.00  0.00    +0.012 A 
ATOM      5  C   UNL     1      -9.355  -3.229  -0.168  0.00  0.00    +0.001 A 
ATOM      6  C   UNL     1      -9.780  -3.945  -1.284  0.00  0.00    +0.001 A 
ATOM      7  C   UNL     1      -8.918  -4.240  -2.301  0.00  0.00    +0.011 A 
ATOM      8  C   UNL     1      -7.591  -3.816  -2.217  0.00  0.00    +0.013 A 
ATOM      9  C   UNL     1      -6.603  -4.089  -3.259  0.00  0.00    +0.102 A 
ATOM     10  N   UNL     1      -5.368  -3.643  -3.083  0.00  0.00    -0.147 NA
ATOM     11  N   UNL     1      -5.003  -2.982  -2.050  0.00  0.00    -0.133 NA
ATOM     12  H   UNL     1      -5.888  -1.809   0.811  0.00  0.00    +0.154 HD
ENDROOT
BRANCH   9  13
ATOM     13  C   UNL     1      -6.971  -4.842  -4.475  0.00  0.00    +0.011 A 
ATOM     14  C   UNL     1      -8.081  -4.474  -5.222  0.00  0.00    +0.011 A 
ATOM     15  C   UNL     1      -8.432  -5.178  -6.366  0.00  0.00    +0.001 A 
ATOM     16  C   UNL     1      -7.702  -6.249  -6.790  0.00  0.00    +0.010 A 
ATOM     17  C   UNL     1      -6.571  -6.657  -6.065  0.00  0.00    +0.001 A 
ATOM     18  C   UNL     1      -6.195  -5.945  -4.898  0.00  0.00    -0.006 A 
ATOM     19  C   UNL     1      -5.057  -6.371  -4.196  0.00  0.00    +0.029 A 
ATOM     20  C   UNL     1      -4.360  -7.444  -4.667  0.00  0.00    +0.111 A 
ATOM     21  N   UNL     1      -4.729  -8.090  -5.765  0.00  0.00    -0.263 NA
ATOM     22  C   UNL     1      -5.788  -7.754  -6.463  0.00  0.00    +0.119 A 
ENDBRANCH   9  13
BRANCH   1  26
ATOM     23  C   UNL     1      -1.429  -0.480  -0.009  0.00  0.00    -0.045 A 
ATOM     24  C   UNL     1      -2.148  -0.571  -1.187  0.00  0.00    +0.006 A 
ATOM     25  C   UNL     1      -3.438  -1.063  -1.174  0.00  0.00    +0.023 A 
ATOM     26  C   UNL     1      -4.014  -1.467   0.024  0.00  0.00    +0.032 A 
ATOM     27  C   UNL     1      -3.288  -1.375   1.205  0.00  0.00    +0.023 A 
ATOM     28  C   UNL     1      -1.997  -0.887   1.184  0.00  0.00    +0.006 A 
BRANCH  23  30
ATOM     29  C   UNL     1       0.848  -0.820  -0.931  0.00  0.00    +0.012 C 
ATOM     30  C   UNL     1      -0.021   0.057  -0.028  0.00  0.00    +0.013 C 
ATOM     31  C   UNL     1      -0.029   1.490  -0.562  0.00  0.00    +0.012 C 
ENDBRANCH  23  30
ENDBRANCH   1  26
TORSDOF 3
