REMARK  Name = CHEMBL324153
REMARK  6 active torsions:
REMARK  status: ('A' for Active; 'I' for Inactive)
REMARK    1  A    between atoms: C_3  and  O_22
REMARK    2  A    between atoms: C_6  and  C_7
REMARK    3  A    between atoms: C_11  and  C_16
REMARK    4  A    between atoms: O_22  and  C_23
REMARK    5  A    between atoms: C_23  and  C_24
REMARK    6  A    between atoms: C_24  and  N_25
REMARK                            x       y       z     vdW  Elec       q    Type
REMARK                         _______ _______ _______ _____ _____    ______ ____
ROOT
ATOM      1  C   UNL     1       0.045   1.050   0.045  0.00  0.00    +0.012 A 
ATOM      2  C   UNL     1       1.189   1.820   0.003  0.00  0.00    +0.046 A 
ATOM      3  C   UNL     1       2.437   1.214   0.026  0.00  0.00    +0.120 A 
ATOM      4  C   UNL     1       2.539  -0.169   0.092  0.00  0.00    +0.046 A 
ATOM      5  C   UNL     1       1.399  -0.945   0.135  0.00  0.00    +0.012 A 
ATOM      6  C   UNL     1       0.145  -0.339   0.111  0.00  0.00    -0.015 A 
ENDROOT
BRANCH   6   7
ATOM      7  C   UNL     1      -1.083  -1.171   0.158  0.00  0.00    +0.018 A 
ATOM      8  C   UNL     1      -1.961  -1.089   1.260  0.00  0.00    +0.123 A 
ATOM      9  N   UNL     1      -3.045  -1.827   1.293  0.00  0.00    -0.235 NA
ATOM     10  C   UNL     1      -3.339  -2.665   0.294  0.00  0.00    +0.163 A 
ATOM     11  C   UNL     1      -4.408  -3.547   0.085  0.00  0.00    +0.046 A 
ATOM     12  C   UNL     1      -4.191  -4.175  -1.148  0.00  0.00    +0.145 A 
ATOM     13  N   UNL     1      -3.076  -3.720  -1.664  0.00  0.00    -0.173 NA
ATOM     14  N   UNL     1      -2.516  -2.777  -0.795  0.00  0.00    -0.221 N 
ATOM     15  C   UNL     1      -1.382  -2.022  -0.870  0.00  0.00    +0.124 A 
BRANCH  11  16
ATOM     16  C   UNL     1      -5.551  -3.773   0.996  0.00  0.00    -0.010 A 
ATOM     17  C   UNL     1      -5.346  -4.030   2.357  0.00  0.00    +0.028 A 
ATOM     18  C   UNL     1      -6.440  -4.235   3.170  0.00  0.00    +0.111 A 
ATOM     19  N   UNL     1      -7.666  -4.192   2.682  0.00  0.00    -0.263 NA
ATOM     20  C   UNL     1      -7.903  -3.953   1.405  0.00  0.00    +0.111 A 
ATOM     21  C   UNL     1      -6.868  -3.731   0.523  0.00  0.00    +0.028 A 
ENDBRANCH  11  16
ENDBRANCH   6   7
BRANCH   3  22
ATOM     22  O   UNL     1       3.562   1.975  -0.017  0.00  0.00    -0.494 OA
BRANCH  22  23
ATOM     23  C   UNL     1       4.814   1.286   0.010  0.00  0.00    +0.210 C 
BRANCH  23  24
ATOM     24  C   UNL     1       5.956   2.302  -0.045  0.00  0.00    -0.037 C 
BRANCH  24  25
ATOM     25  N   UNL     1       5.922   3.143   1.159  0.00  0.00    +0.385 N 
ATOM     26  C   UNL     1       6.927   4.209   1.040  0.00  0.00    -0.050 C 
ATOM     27  C   UNL     1       6.889   5.084   2.296  0.00  0.00    +0.141 C 
ATOM     28  O   UNL     1       7.123   4.267   3.447  0.00  0.00    -0.383 OA
ATOM     29  C   UNL     1       6.184   3.199   3.593  0.00  0.00    +0.141 C 
ATOM     30  C   UNL     1       6.220   2.320   2.340  0.00  0.00    -0.050 C 
ATOM     31  H   UNL     1       5.006   3.554   1.257  0.00  0.00    -0.081 HD
ENDBRANCH  24  25
ENDBRANCH  23  24
ENDBRANCH  22  23
ENDBRANCH   3  22
TORSDOF 6
