REMARK  Name = CHEMBL250482
REMARK  5 active torsions:
REMARK  status: ('A' for Active; 'I' for Inactive)
REMARK    1  A    between atoms: C_3  and  C_15
REMARK    2  A    between atoms: N_7  and  C_8
REMARK    3  A    between atoms: C_8  and  C_9
REMARK    4  A    between atoms: N_17  and  C_18
REMARK    5  A    between atoms: C_21  and  C_24
REMARK                            x       y       z     vdW  Elec       q    Type
REMARK                         _______ _______ _______ _____ _____    ______ ____
ROOT
ATOM      1  C   UNL     1       3.746   1.992   0.150  0.00  0.00    +0.252 C 
ATOM      2  O   UNL     1       4.751   1.347   0.379  0.00  0.00    -0.270 OA
ATOM      3  N   UNL     1       3.838   3.311  -0.114  0.00  0.00    -0.281 N 
ATOM      4  H   UNL     1       3.033   3.841  -0.223  0.00  0.00    +0.155 HD
ENDROOT
BRANCH   1   7
ATOM      5  C   UNL     1       0.042   1.416   0.034  0.00  0.00    +0.021 A 
ATOM      6  C   UNL     1       1.255   2.083   0.018  0.00  0.00    +0.018 A 
ATOM      7  C   UNL     1       2.428   1.333   0.160  0.00  0.00    +0.077 A 
ATOM      8  C   UNL     1       2.326  -0.060   0.314  0.00  0.00    +0.131 A 
ATOM      9  N   UNL     1       1.139  -0.647   0.322  0.00  0.00    -0.240 NA
ATOM     10  C   UNL     1       0.022   0.042   0.189  0.00  0.00    +0.113 A 
ATOM     11  N   UNL     1       3.471  -0.823   0.456  0.00  0.00    -0.324 N 
ATOM     12  H   UNL     1       4.336  -0.389   0.528  0.00  0.00    +0.148 HD
BRANCH  11  13
ATOM     13  C   UNL     1       3.378  -2.284   0.497  0.00  0.00    +0.138 C 
BRANCH  13  14
ATOM     14  C   UNL     1       4.756  -2.871   0.657  0.00  0.00    -0.028 A 
ATOM     15  C   UNL     1       5.528  -3.183  -0.452  0.00  0.00    +0.025 A 
ATOM     16  C   UNL     1       6.788  -3.720  -0.267  0.00  0.00    +0.111 A 
ATOM     17  N   UNL     1       7.257  -3.936   0.947  0.00  0.00    -0.263 NA
ATOM     18  C   UNL     1       6.551  -3.651   2.024  0.00  0.00    +0.111 A 
ATOM     19  C   UNL     1       5.286  -3.106   1.916  0.00  0.00    +0.025 A 
ENDBRANCH  13  14
ENDBRANCH  11  13
ENDBRANCH   1   7
BRANCH   3  20
ATOM     20  C   UNL     1       5.094   3.915  -0.231  0.00  0.00    +0.034 A 
ATOM     21  C   UNL     1       5.276   5.228   0.184  0.00  0.00    +0.023 A 
ATOM     22  C   UNL     1       6.518   5.821   0.068  0.00  0.00    +0.006 A 
ATOM     23  C   UNL     1       7.579   5.110  -0.462  0.00  0.00    -0.044 A 
ATOM     24  C   UNL     1       7.401   3.802  -0.876  0.00  0.00    +0.006 A 
ATOM     25  C   UNL     1       6.163   3.201  -0.756  0.00  0.00    +0.023 A 
BRANCH  23  26
ATOM     26  C   UNL     1       8.932   5.761  -0.588  0.00  0.00    +0.019 C 
ATOM     27  C   UNL     1       9.356   5.776  -2.058  0.00  0.00    +0.008 C 
ATOM     28  C   UNL     1      10.730   6.437  -2.186  0.00  0.00    +0.001 C 
ATOM     29  C   UNL     1      11.754   5.647  -1.369  0.00  0.00    +0.000 C 
ATOM     30  C   UNL     1      11.331   5.631   0.102  0.00  0.00    +0.001 C 
ATOM     31  C   UNL     1       9.957   4.970   0.230  0.00  0.00    +0.008 C 
ENDBRANCH  23  26
ENDBRANCH   3  20
TORSDOF 5
