REMARK  Name = CHEMBL403706
REMARK  5 active torsions:
REMARK  status: ('A' for Active; 'I' for Inactive)
REMARK    1  A    between atoms: C_1  and  C_2
REMARK    2  A    between atoms: C_5  and  C_22
REMARK    3  A    between atoms: C_7  and  N_8
REMARK    4  A    between atoms: N_11  and  C_12
REMARK    5  A    between atoms: C_16  and  C_18
REMARK                            x       y       z     vdW  Elec       q    Type
REMARK                         _______ _______ _______ _____ _____    ______ ____
ROOT
ATOM      1  C   UNL     1       0.017   1.236  -0.112  0.00  0.00    +0.045 C 
ATOM      2  C   UNL     1       0.179  -0.160   0.432  0.00  0.00    -0.029 A 
ATOM      3  C   UNL     1       0.326  -1.226  -0.437  0.00  0.00    +0.006 A 
ATOM      4  C   UNL     1       0.475  -2.506   0.052  0.00  0.00    +0.010 A 
ATOM      5  C   UNL     1       0.479  -2.731   1.433  0.00  0.00    -0.002 A 
ATOM      6  C   UNL     1       0.332  -1.654   2.310  0.00  0.00    +0.033 A 
ATOM      7  C   UNL     1       0.187  -0.371   1.806  0.00  0.00    +0.038 A 
ENDROOT
BRANCH   5   8
ATOM      8  C   UNL     1       0.638  -4.097   1.959  0.00  0.00    +0.051 C 
ATOM      9  N   UNL     1       0.604  -5.020   1.106  0.00  0.00    -0.245 NA
ATOM     10  C   UNL     1       0.767  -6.350   1.110  0.00  0.00    +0.143 A 
ATOM     11  C   UNL     1       0.626  -7.024  -0.130  0.00  0.00    +0.147 A 
ATOM     12  N   UNL     1       0.784  -8.339  -0.182  0.00  0.00    -0.219 NA
ATOM     13  C   UNL     1       1.072  -9.030   0.903  0.00  0.00    +0.225 A 
ATOM     14  N   UNL     1       1.210  -8.452   2.075  0.00  0.00    -0.219 NA
ATOM     15  C   UNL     1       1.067  -7.131   2.229  0.00  0.00    +0.149 A 
ATOM     16  N   UNL     1       1.216  -6.619   3.494  0.00  0.00    -0.327 N 
ATOM     17  C   UNL     1       1.776  -5.323   3.802  0.00  0.00    +0.109 C 
ATOM     18  C   UNL     1       0.823  -4.206   3.432  0.00  0.00    +0.074 C 
ATOM     19  N   UNL     1       0.324  -6.313  -1.278  0.00  0.00    -0.341 N 
ATOM     20  H   UNL     1       0.923  -7.169   4.238  0.00  0.00    +0.148 HD
ATOM     21  H   UNL     1       0.209  -5.351  -1.237  0.00  0.00    +0.144 HD
ATOM     22  H   UNL     1       0.228  -6.777  -2.125  0.00  0.00    +0.144 HD
ENDBRANCH   5   8
BRANCH   7  23
ATOM     23  N   UNL     1       0.044   0.712   2.680  0.00  0.00    -0.269 N 
ATOM     24  C   UNL     1      -0.525   0.533   3.888  0.00  0.00    +0.308 C 
ATOM     25  O   UNL     1      -0.845  -0.583   4.250  0.00  0.00    -0.252 OA
ATOM     26  N   UNL     1      -0.741   1.590   4.696  0.00  0.00    -0.269 N 
ATOM     27  H   UNL     1       0.356   1.593   2.417  0.00  0.00    +0.156 HD
ATOM     28  H   UNL     1      -0.419   2.469   4.441  0.00  0.00    +0.156 HD
BRANCH  26  29
ATOM     29  C   UNL     1      -1.428   1.420   5.903  0.00  0.00    +0.035 A 
ATOM     30  C   UNL     1      -1.099   2.197   7.006  0.00  0.00    +0.023 A 
ATOM     31  C   UNL     1      -1.779   2.027   8.196  0.00  0.00    +0.002 A 
ATOM     32  C   UNL     1      -2.787   1.084   8.290  0.00  0.00    +0.012 A 
ATOM     33  C   UNL     1      -3.117   0.309   7.193  0.00  0.00    +0.057 A 
ATOM     34  C   UNL     1      -2.444   0.478   5.998  0.00  0.00    +0.035 A 
BRANCH  33  35
ATOM     35  C   UNL     1      -4.215  -0.717   7.299  0.00  0.00    +0.417 C 
ATOM     36  F   UNL     1      -4.747  -0.698   8.593  0.00  0.00    -0.166 F 
ATOM     37  F   UNL     1      -5.224  -0.418   6.377  0.00  0.00    -0.166 F 
ATOM     38  F   UNL     1      -3.696  -1.987   7.027  0.00  0.00    -0.166 F 
ENDBRANCH  33  35
ENDBRANCH  26  29
ENDBRANCH   7  23
TORSDOF 4
