REMARK  Name = CHEMBL383618
REMARK  2 active torsions:
REMARK  status: ('A' for Active; 'I' for Inactive)
REMARK    1  A    between atoms: C_9  and  C_11
REMARK    2  A    between atoms: C_12  and  N_22
REMARK                            x       y       z     vdW  Elec       q    Type
REMARK                         _______ _______ _______ _____ _____    ______ ____
ROOT
ATOM      1  C   UNL     1       3.730  -3.314  -0.062  0.00  0.00    +0.103 A 
ATOM      2  C   UNL     1       5.121  -3.254  -0.166  0.00  0.00    +0.050 A 
ATOM      3  C   UNL     1       5.866  -4.519  -0.165  0.00  0.00    +0.023 A 
ATOM      4  C   UNL     1       7.260  -4.557  -0.265  0.00  0.00    +0.031 A 
ATOM      5  C   UNL     1       7.887  -5.785  -0.257  0.00  0.00    +0.111 A 
ATOM      6  N   UNL     1       7.194  -6.906  -0.158  0.00  0.00    -0.261 NA
ATOM      7  C   UNL     1       5.882  -6.922  -0.062  0.00  0.00    +0.137 A 
ATOM      8  C   UNL     1       5.161  -5.732  -0.061  0.00  0.00    +0.069 A 
ATOM      9  N   UNL     1       3.786  -5.723   0.038  0.00  0.00    -0.320 N 
ATOM     10  C   UNL     1       3.090  -4.573   0.045  0.00  0.00    +0.262 A 
ATOM     11  O   UNL     1       1.876  -4.615   0.140  0.00  0.00    -0.267 OA
ATOM     12  H   UNL     1       3.310  -6.565   0.109  0.00  0.00    +0.169 HD
ENDROOT
BRANCH   1  21
ATOM     13  C   UNL     1      -0.020   1.373  -0.056  0.00  0.00    +0.002 A 
ATOM     14  C   UNL     1       1.166   2.093  -0.026  0.00  0.00    +0.002 A 
ATOM     15  C   UNL     1       2.378   1.442  -0.015  0.00  0.00    +0.030 A 
ATOM     16  C   UNL     1       2.417   0.044  -0.035  0.00  0.00    +0.089 A 
ATOM     17  C   UNL     1       1.212  -0.680  -0.065  0.00  0.00    +0.066 A 
ATOM     18  C   UNL     1      -0.001  -0.006  -0.075  0.00  0.00    +0.028 A 
ATOM     19  N   UNL     1       1.565  -2.017  -0.079  0.00  0.00    -0.338 N 
ATOM     20  H   UNL     1       0.957  -2.773  -0.100  0.00  0.00    +0.167 HD
ATOM     21  C   UNL     1       2.934  -2.075  -0.057  0.00  0.00    +0.146 A 
ATOM     22  N   UNL     1       3.428  -0.859  -0.031  0.00  0.00    -0.227 NA
ENDBRANCH   1  21
BRANCH   2  23
ATOM     23  N   UNL     1       5.772  -2.049  -0.266  0.00  0.00    -0.357 N 
ATOM     24  H   UNL     1       5.274  -1.220  -0.186  0.00  0.00    +0.142 HD
ATOM     25  H   UNL     1       6.730  -2.026  -0.417  0.00  0.00    +0.142 HD
ENDBRANCH   2  23
TORSDOF 2
