REMARK  Name = CHEMBL324153
REMARK  6 active torsions:
REMARK  status: ('A' for Active; 'I' for Inactive)
REMARK    1  A    between atoms: C_3  and  O_22
REMARK    2  A    between atoms: C_6  and  C_7
REMARK    3  A    between atoms: C_11  and  C_16
REMARK    4  A    between atoms: O_22  and  C_23
REMARK    5  A    between atoms: C_23  and  C_24
REMARK    6  A    between atoms: C_24  and  N_25
REMARK                            x       y       z     vdW  Elec       q    Type
REMARK                         _______ _______ _______ _____ _____    ______ ____
ROOT
ATOM      1  C   UNL     1      -0.020   1.447  -0.301  0.00  0.00    +0.012 A 
ATOM      2  C   UNL     1       1.173   2.139  -0.283  0.00  0.00    +0.046 A 
ATOM      3  C   UNL     1       2.374   1.452  -0.176  0.00  0.00    +0.121 A 
ATOM      4  C   UNL     1       2.378   0.066  -0.087  0.00  0.00    +0.046 A 
ATOM      5  C   UNL     1       1.188  -0.631  -0.104  0.00  0.00    +0.012 A 
ATOM      6  C   UNL     1      -0.019   0.057  -0.211  0.00  0.00    -0.015 A 
ENDROOT
BRANCH   6   7
ATOM      7  C   UNL     1      -1.301  -0.691  -0.230  0.00  0.00    +0.018 A 
ATOM      8  C   UNL     1      -2.236  -0.532   0.816  0.00  0.00    +0.123 A 
ATOM      9  N   UNL     1      -3.367  -1.197   0.792  0.00  0.00    -0.235 NA
ATOM     10  C   UNL     1      -3.656  -2.030  -0.213  0.00  0.00    +0.163 A 
ATOM     11  C   UNL     1      -4.768  -2.842  -0.476  0.00  0.00    +0.046 A 
ATOM     12  C   UNL     1      -4.520  -3.503  -1.685  0.00  0.00    +0.145 A 
ATOM     13  N   UNL     1      -3.348  -3.131  -2.138  0.00  0.00    -0.173 NA
ATOM     14  N   UNL     1      -2.778  -2.214  -1.248  0.00  0.00    -0.221 N 
ATOM     15  C   UNL     1      -1.594  -1.537  -1.263  0.00  0.00    +0.124 A 
BRANCH  11  16
ATOM     16  C   UNL     1      -5.976  -2.976   0.366  0.00  0.00    -0.010 A 
ATOM     17  C   UNL     1      -5.872  -3.224   1.740  0.00  0.00    +0.028 A 
ATOM     18  C   UNL     1      -7.023  -3.342   2.488  0.00  0.00    +0.111 A 
ATOM     19  N   UNL     1      -8.212  -3.225   1.925  0.00  0.00    -0.263 NA
ATOM     20  C   UNL     1      -8.355  -2.992   0.633  0.00  0.00    +0.111 A 
ATOM     21  C   UNL     1      -7.256  -2.854  -0.187  0.00  0.00    +0.028 A 
ENDBRANCH  11  16
ENDBRANCH   6   7
BRANCH   3  22
ATOM     22  O   UNL     1       3.548   2.136  -0.159  0.00  0.00    -0.491 OA
BRANCH  22  23
ATOM     23  C   UNL     1       4.746   1.366  -0.047  0.00  0.00    +0.244 C 
BRANCH  23  24
ATOM     24  C   UNL     1       5.956   2.302  -0.045  0.00  0.00    +0.125 C 
BRANCH  24  25
ATOM     25  N   UNL     1       5.922   3.143   1.159  0.00  0.00    -0.295 NA
ATOM     26  C   UNL     1       6.764   4.337   0.992  0.00  0.00    +0.112 C 
ATOM     27  C   UNL     1       6.653   5.212   2.243  0.00  0.00    +0.175 C 
ATOM     28  O   UNL     1       7.025   4.444   3.391  0.00  0.00    -0.377 OA
ATOM     29  C   UNL     1       6.225   3.274   3.584  0.00  0.00    +0.175 C 
ATOM     30  C   UNL     1       6.331   2.379   2.346  0.00  0.00    +0.112 C 
ENDBRANCH  24  25
ENDBRANCH  23  24
ENDBRANCH  22  23
ENDBRANCH   3  22
TORSDOF 6
