REMARK  Name = CHEMBL489820
REMARK  8 active torsions:
REMARK  status: ('A' for Active; 'I' for Inactive)
REMARK    1  A    between atoms: C_1  and  C_2
REMARK    2  A    between atoms: C_2  and  N_3
REMARK    3  A    between atoms: N_6  and  C_9
REMARK    4  A    between atoms: C_9  and  C_10
REMARK    5  A    between atoms: C_10  and  C_11
REMARK    6  A    between atoms: C_11  and  O_12
REMARK    7  A    between atoms: O_12  and  C_13
REMARK    8  A    between atoms: C_20  and  C_23
REMARK                            x       y       z     vdW  Elec       q    Type
REMARK                         _______ _______ _______ _____ _____    ______ ____
ROOT
ATOM      1  C   UNL     1      -7.332  -6.823   1.464  0.00  0.00    +0.121 A 
ATOM      2  C   UNL     1      -8.526  -6.105   1.438  0.00  0.00    +0.047 A 
ATOM      3  C   UNL     1      -9.738  -6.756   1.496  0.00  0.00    +0.030 A 
ATOM      4  C   UNL     1      -9.779  -8.144   1.583  0.00  0.00    +0.047 A 
ATOM      5  C   UNL     1      -8.575  -8.873   1.609  0.00  0.00    +0.004 A 
ATOM      6  C   UNL     1      -7.350  -8.200   1.543  0.00  0.00    +0.055 A 
ATOM      7  C   UNL     1      -8.950 -10.282   1.702  0.00  0.00    +0.036 A 
ATOM      8  C   UNL     1     -10.306 -10.330   1.727  0.00  0.00    +0.048 A 
ATOM      9  N   UNL     1     -10.814  -9.052   1.656  0.00  0.00    -0.354 N 
ATOM     10  H   UNL     1     -11.757  -8.826   1.657  0.00  0.00    +0.166 HD
ENDROOT
BRANCH   8  11
ATOM     11  C   UNL     1     -11.113 -11.563   1.817  0.00  0.00    +0.011 A 
ATOM     12  C   UNL     1     -10.733 -12.704   1.110  0.00  0.00    +0.011 A 
ATOM     13  C   UNL     1     -11.489 -13.855   1.196  0.00  0.00    +0.001 A 
ATOM     14  C   UNL     1     -12.630 -13.889   1.984  0.00  0.00    +0.006 A 
ATOM     15  C   UNL     1     -13.020 -12.773   2.687  0.00  0.00    -0.018 A 
ATOM     16  C   UNL     1     -12.269 -11.597   2.621  0.00  0.00    +0.050 A 
ATOM     17  C   UNL     1     -12.916 -10.586   3.473  0.00  0.00    +0.245 C 
ATOM     18  O   UNL     1     -12.513  -9.449   3.629  0.00  0.00    -0.270 OA
ATOM     19  N   UNL     1     -14.016 -11.097   4.052  0.00  0.00    -0.307 N 
ATOM     20  C   UNL     1     -14.179 -12.487   3.610  0.00  0.00    +0.140 C 
ATOM     21  H   UNL     1     -14.609 -10.623   4.656  0.00  0.00    +0.149 HD
ENDBRANCH   8  11
BRANCH   1  22
ATOM     22  O   UNL     1      -6.144  -6.163   1.404  0.00  0.00    -0.492 OA
BRANCH  22  23
ATOM     23  C   UNL     1      -6.197  -4.738   1.323  0.00  0.00    +0.230 C 
BRANCH  23  24
ATOM     24  C   UNL     1      -4.774  -4.177   1.266  0.00  0.00    +0.056 C 
BRANCH  24  25
ATOM     25  C   UNL     1      -4.831  -2.651   1.179  0.00  0.00    +0.087 C 
BRANCH  25  29
ATOM     26  N   UNL     1      -1.376  -0.512   0.012  0.00  0.00    +0.381 N 
ATOM     27  C   UNL     1      -2.026  -0.138   1.275  0.00  0.00    -0.063 C 
ATOM     28  C   UNL     1      -3.468  -0.651   1.279  0.00  0.00    +0.066 C 
ATOM     29  N   UNL     1      -3.465  -2.113   1.124  0.00  0.00    -0.306 NA
ATOM     30  C   UNL     1      -2.795  -2.504  -0.124  0.00  0.00    +0.066 C 
ATOM     31  C   UNL     1      -1.359  -1.976  -0.116  0.00  0.00    -0.063 C 
ATOM     32  H   UNL     1      -1.888  -0.113  -0.760  0.00  0.00    -0.082 HD
BRANCH  26  34
ATOM     33  C   UNL     1      -0.019   1.526   0.010  0.00  0.00    -0.017 C 
ATOM     34  C   UNL     1       0.002  -0.004   0.002  0.00  0.00    -0.082 C 
ENDBRANCH  26  34
ENDBRANCH  25  29
ENDBRANCH  24  25
ENDBRANCH  23  24
ENDBRANCH  22  23
ENDBRANCH   1  22
TORSDOF 7
