REMARK  Name = CHEMBL372793
REMARK  11 active torsions:
REMARK  status: ('A' for Active; 'I' for Inactive)
REMARK    1  A    between atoms: C_1  and  N_2
REMARK    2  A    between atoms: N_2  and  C_3
REMARK    3  A    between atoms: C_11  and  O_12
REMARK    4  A    between atoms: N_14  and  C_15
REMARK    5  A    between atoms: C_18  and  O_30
REMARK    6  A    between atoms: C_19  and  O_25
REMARK    7  A    between atoms: O_25  and  C_26
REMARK    8  A    between atoms: C_26  and  C_27
REMARK    9  A    between atoms: C_27  and  O_28
REMARK   10  A    between atoms: O_28  and  C_29
REMARK   11  A    between atoms: O_30  and  C_31
REMARK                            x       y       z     vdW  Elec       q    Type
REMARK                         _______ _______ _______ _____ _____    ______ ____
ROOT
ATOM      1  C   UNL     1       3.224   1.729   5.963  0.00  0.00    +0.149 C 
ATOM      2  N   UNL     1       3.286   0.276   5.787  0.00  0.00    -0.341 N 
ATOM      3  C   UNL     1       2.175  -0.435   5.779  0.00  0.00    +0.089 C 
ATOM      4  C   UNL     1       2.175  -1.883   5.515  0.00  0.00    +0.076 C 
ATOM      5  C   UNL     1       1.016  -2.484   5.137  0.00  0.00    +0.141 C 
ATOM      6  C   UNL     1      -0.198  -1.782   4.986  0.00  0.00    +0.092 C 
ATOM      7  N   UNL     1      -1.288  -2.455   4.712  0.00  0.00    -0.228 NA
ATOM      8  C   UNL     1      -0.285  -0.285   5.130  0.00  0.00    +0.140 C 
ATOM      9  C   UNL     1       0.841   0.178   6.042  0.00  0.00    +0.185 C 
ATOM     10  O   UNL     1       0.668   0.990   6.920  0.00  0.00    -0.290 OA
ENDROOT
BRANCH   7  11
ATOM     11  C   UNL     1      -1.266  -3.813   4.712  0.00  0.00    +0.164 A 
ATOM     12  C   UNL     1      -1.460  -4.577   5.945  0.00  0.00    +0.048 A 
ATOM     13  C   UNL     1      -1.677  -3.958   7.179  0.00  0.00    +0.063 A 
ATOM     14  C   UNL     1      -1.852  -4.727   8.296  0.00  0.00    +0.162 A 
ATOM     15  C   UNL     1      -1.815  -6.127   8.214  0.00  0.00    +0.164 A 
ATOM     16  C   UNL     1      -1.603  -6.756   7.019  0.00  0.00    +0.078 A 
ATOM     17  C   UNL     1      -1.422  -5.992   5.858  0.00  0.00    +0.080 A 
ATOM     18  N   UNL     1      -1.211  -6.555   4.661  0.00  0.00    -0.235 NA
ATOM     19  C   UNL     1      -1.043  -5.823   3.587  0.00  0.00    +0.224 A 
ATOM     20  N   UNL     1      -1.071  -4.503   3.586  0.00  0.00    -0.216 NA
BRANCH  14  21
ATOM     21  O   UNL     1      -2.064  -4.129   9.498  0.00  0.00    -0.491 OA
ATOM     22  C   UNL     1      -2.091  -2.701   9.516  0.00  0.00    +0.277 C 
ENDBRANCH  14  21
BRANCH  15  23
ATOM     23  O   UNL     1      -1.991  -6.869   9.339  0.00  0.00    -0.486 OA
BRANCH  23  24
ATOM     24  C   UNL     1      -1.942  -8.290   9.193  0.00  0.00    +0.257 C 
BRANCH  24  25
ATOM     25  C   UNL     1      -2.159  -8.949  10.557  0.00  0.00    +0.200 C 
BRANCH  25  26
ATOM     26  O   UNL     1      -3.480  -8.662  11.020  0.00  0.00    -0.380 OA
ATOM     27  C   UNL     1      -3.787  -9.235  12.293  0.00  0.00    +0.194 C 
ENDBRANCH  25  26
ENDBRANCH  24  25
ENDBRANCH  23  24
ENDBRANCH  15  23
ENDBRANCH   7  11
BRANCH   2  28
ATOM     28  C   UNL     1       4.481  -0.337   5.635  0.00  0.00    +0.042 A 
ATOM     29  C   UNL     1       4.726  -1.135   4.508  0.00  0.00    +0.026 A 
ATOM     30  C   UNL     1       5.947  -1.755   4.361  0.00  0.00    +0.002 A 
ATOM     31  C   UNL     1       6.932  -1.592   5.321  0.00  0.00    +0.000 A 
ATOM     32  C   UNL     1       6.699  -0.806   6.437  0.00  0.00    +0.002 A 
ATOM     33  C   UNL     1       5.486  -0.173   6.599  0.00  0.00    +0.026 A 
ENDBRANCH   2  28
BRANCH   5  34
ATOM     34  O   UNL     1       1.027  -3.819   4.895  0.00  0.00    -0.505 OA
ATOM     35  H   UNL     1       1.891  -4.234   5.019  0.00  0.00    +0.292 HD
ENDBRANCH   5  34
TORSDOF 8
