REMARK  Name = CHEMBL230222
REMARK  7 active torsions:
REMARK  status: ('A' for Active; 'I' for Inactive)
REMARK    1  A    between atoms: C_1  and  N_2
REMARK    2  A    between atoms: C_6  and  C_8
REMARK    3  A    between atoms: C_8  and  O_9
REMARK    4  A    between atoms: O_9  and  C_10
REMARK    5  A    between atoms: C_12  and  N_17
REMARK    6  A    between atoms: C_22  and  O_27
REMARK    7  A    between atoms: O_27  and  C_28
REMARK                            x       y       z     vdW  Elec       q    Type
REMARK                         _______ _______ _______ _____ _____    ______ ____
ROOT
ATOM      1  N   UNL     1       3.118   4.060   5.133  0.00  0.00    -0.269 N 
ATOM      2  C   UNL     1       3.317   5.361   5.543  0.00  0.00    +0.293 A 
ATOM      3  N   UNL     1       4.478   5.879   5.856  0.00  0.00    -0.195 NA
ATOM      4  C   UNL     1       4.293   7.180   6.211  0.00  0.00    +0.115 A 
ATOM      5  C   UNL     1       5.154   8.195   6.629  0.00  0.00    +0.078 A 
ATOM      6  C   UNL     1       4.646   9.446   6.925  0.00  0.00    +0.131 A 
ATOM      7  C   UNL     1       3.282   9.694   6.808  0.00  0.00    +0.050 A 
ATOM      8  C   UNL     1       2.424   8.696   6.396  0.00  0.00    +0.052 A 
ATOM      9  C   UNL     1       2.919   7.437   6.095  0.00  0.00    +0.157 A 
ATOM     10  O   UNL     1       2.349   6.284   5.673  0.00  0.00    -0.424 OA
ATOM     11  H   UNL     1       3.879   3.476   4.986  0.00  0.00    +0.157 HD
ENDROOT
BRANCH   1  14
ATOM     12  C   UNL     1       0.298   2.114   3.792  0.00  0.00    +0.140 A 
ATOM     13  C   UNL     1       1.585   2.586   3.992  0.00  0.00    +0.070 A 
ATOM     14  C   UNL     1       1.820   3.582   4.929  0.00  0.00    +0.038 A 
ATOM     15  C   UNL     1       0.763   4.104   5.665  0.00  0.00    +0.025 A 
ATOM     16  C   UNL     1      -0.519   3.632   5.464  0.00  0.00    +0.025 A 
ATOM     17  C   UNL     1      -0.756   2.643   4.526  0.00  0.00    +0.083 A 
ATOM     18 CL   UNL     1      -2.370   2.058   4.272  0.00  0.00    -0.080 Cl
BRANCH  12  19
ATOM     19  O   UNL     1       0.065   1.139   2.875  0.00  0.00    -0.492 OA
BRANCH  19  20
ATOM     20  C   UNL     1       1.196   0.641   2.157  0.00  0.00    +0.214 C 
BRANCH  20  26
ATOM     21  C   UNL     1       3.101  -0.188   0.784  0.00  0.00    -0.096 C 
ATOM     22  N   UNL     1       1.885  -0.899   0.367  0.00  0.00    +0.382 N 
ATOM     23  C   UNL     1       1.601  -0.607  -1.054  0.00  0.00    -0.079 C 
ATOM     24  C   UNL     1       0.056  -0.541  -1.144  0.00  0.00    -0.020 C 
ATOM     25  C   UNL     1      -0.308   0.136   0.204  0.00  0.00    -0.014 C 
ATOM     26  C   UNL     1       0.741  -0.443   1.177  0.00  0.00    -0.031 C 
ATOM     27  H   UNL     1       2.013  -1.892   0.488  0.00  0.00    -0.082 HD
ENDBRANCH  20  26
ENDBRANCH  19  20
ENDBRANCH  12  19
ENDBRANCH   1  14
BRANCH   6  28
ATOM     28  O   UNL     1       5.482  10.438   7.333  0.00  0.00    -0.455 OA
BRANCH  28  29
ATOM     29  C   UNL     1       6.234  11.064   6.393  0.00  0.00    +0.141 A 
ATOM     30  C   UNL     1       6.075  10.779   5.042  0.00  0.00    +0.066 A 
ATOM     31  C   UNL     1       6.860  11.439   4.114  0.00  0.00    +0.117 A 
ATOM     32  N   UNL     1       7.757  12.332   4.477  0.00  0.00    -0.237 NA
ATOM     33  C   UNL     1       7.955  12.646   5.752  0.00  0.00    +0.142 A 
ATOM     34  C   UNL     1       7.191  12.023   6.754  0.00  0.00    +0.061 A 
ATOM     35  C   UNL     1       7.641  12.589   8.026  0.00  0.00    +0.032 A 
ATOM     36  C   UNL     1       8.601  13.482   7.736  0.00  0.00    +0.085 A 
ATOM     37  N   UNL     1       8.806  13.521   6.383  0.00  0.00    -0.346 N 
ATOM     38  H   UNL     1       9.450  14.092   5.934  0.00  0.00    +0.167 HD
ENDBRANCH  28  29
ENDBRANCH   6  28
TORSDOF 6
