REMARK  Name = CHEMBL250213
REMARK  8 active torsions:
REMARK  status: ('A' for Active; 'I' for Inactive)
REMARK    1  A    between atoms: C_1  and  C_2
REMARK    2  A    between atoms: C_4  and  C_27
REMARK    3  A    between atoms: N_12  and  C_13
REMARK    4  A    between atoms: C_16  and  C_19
REMARK    5  A    between atoms: C_19  and  C_20
REMARK    6  A    between atoms: C_20  and  C_21
REMARK    7  A    between atoms: C_21  and  N_22
REMARK    8  A    between atoms: C_29  and  O_34
REMARK                            x       y       z     vdW  Elec       q    Type
REMARK                         _______ _______ _______ _____ _____    ______ ____
ROOT
ATOM      1  C   UNL     1      -0.080   1.315  -0.051  0.00  0.00    +0.046 C 
ATOM      2  C   UNL     1      -0.973   0.113   0.119  0.00  0.00    -0.022 A 
ATOM      3  C   UNL     1      -1.646  -0.391  -0.950  0.00  0.00    +0.014 A 
ATOM      4  C   UNL     1      -2.483  -1.510  -0.812  0.00  0.00    -0.014 A 
ATOM      5  C   UNL     1      -2.641  -2.124   0.417  0.00  0.00    +0.040 A 
ATOM      6  C   UNL     1      -1.957  -1.619   1.532  0.00  0.00    +0.112 A 
ATOM      7  C   UNL     1      -1.108  -0.491   1.379  0.00  0.00    +0.097 A 
ATOM      8  N   UNL     1      -0.458  -0.026   2.453  0.00  0.00    -0.211 NA
ATOM      9  C   UNL     1      -0.623  -0.634   3.615  0.00  0.00    +0.240 A 
ATOM     10  N   UNL     1      -1.420  -1.697   3.740  0.00  0.00    -0.112 NA
ATOM     11  N   UNL     1      -2.078  -2.179   2.742  0.00  0.00    -0.144 NA
ATOM     12  N   UNL     1       0.048  -0.157   4.728  0.00  0.00    -0.282 N 
ATOM     13  H   UNL     1       0.566   0.661   4.669  0.00  0.00    +0.155 HD
ENDROOT
BRANCH   4  14
ATOM     14  C   UNL     1      -3.205  -2.038  -1.995  0.00  0.00    +0.004 A 
ATOM     15  C   UNL     1      -3.154  -3.397  -2.296  0.00  0.00    +0.055 A 
ATOM     16  C   UNL     1      -3.830  -3.884  -3.402  0.00  0.00    +0.118 A 
ATOM     17  C   UNL     1      -4.557  -3.019  -4.208  0.00  0.00    +0.047 A 
ATOM     18  C   UNL     1      -4.609  -1.670  -3.912  0.00  0.00    +0.024 A 
ATOM     19  C   UNL     1      -3.942  -1.176  -2.807  0.00  0.00    +0.049 A 
ATOM     20 CL   UNL     1      -4.015   0.518  -2.434  0.00  0.00    -0.083 Cl
BRANCH  16  21
ATOM     21  O   UNL     1      -3.782  -5.210  -3.698  0.00  0.00    -0.507 OA
ATOM     22  H   UNL     1      -4.484  -5.731  -3.285  0.00  0.00    +0.292 HD
ENDBRANCH  16  21
ENDBRANCH   4  14
BRANCH  12  23
ATOM     23  C   UNL     1      -0.022  -0.854   5.938  0.00  0.00    +0.034 A 
ATOM     24  C   UNL     1       0.008  -2.242   5.944  0.00  0.00    +0.023 A 
ATOM     25  C   UNL     1      -0.061  -2.928   7.141  0.00  0.00    +0.005 A 
ATOM     26  C   UNL     1      -0.160  -2.233   8.333  0.00  0.00    -0.047 A 
ATOM     27  C   UNL     1      -0.191  -0.851   8.330  0.00  0.00    +0.005 A 
ATOM     28  C   UNL     1      -0.116  -0.159   7.137  0.00  0.00    +0.023 A 
BRANCH  26  29
ATOM     29  C   UNL     1      -0.236  -2.984   9.637  0.00  0.00    +0.033 C 
BRANCH  29  30
ATOM     30  C   UNL     1       1.177  -3.207  10.180  0.00  0.00    -0.014 C 
BRANCH  30  31
ATOM     31  C   UNL     1       1.100  -3.970  11.504  0.00  0.00    -0.079 C 
BRANCH  31  32
ATOM     32  N   UNL     1       2.457  -4.184  12.025  0.00  0.00    +0.380 N 
ATOM     33  C   UNL     1       3.201  -5.085  11.121  0.00  0.00    -0.079 C 
ATOM     34  C   UNL     1       4.083  -5.947  12.058  0.00  0.00    -0.020 C 
ATOM     35  C   UNL     1       3.140  -6.154  13.273  0.00  0.00    -0.020 C 
ATOM     36  C   UNL     1       2.383  -4.811  13.357  0.00  0.00    -0.079 C 
ATOM     37  H   UNL     1       2.939  -3.300  12.092  0.00  0.00    -0.082 HD
ENDBRANCH  31  32
ENDBRANCH  30  31
ENDBRANCH  29  30
ENDBRANCH  26  29
ENDBRANCH  12  23
TORSDOF 7
