REMARK  Name = CHEMBL94678
REMARK  5 active torsions:
REMARK  status: ('A' for Active; 'I' for Inactive)
REMARK    1  A    between atoms: C_1  and  C_2
REMARK    2  A    between atoms: C_3  and  C_32
REMARK    3  A    between atoms: C_3  and  O_36
REMARK    4  A    between atoms: C_32  and  O_34
REMARK    5  A    between atoms: O_34  and  C_35
REMARK                            x       y       z     vdW  Elec       q    Type
REMARK                         _______ _______ _______ _____ _____    ______ ____
ROOT
ATOM      1  C   UNL     1      -0.019   1.526   0.010  0.00  0.00    +0.070 C 
ATOM      2  C   UNL     1       0.002  -0.004   0.002  0.00  0.00    +0.186 C 
ATOM      3  C   UNL     1       0.661  -0.527  -1.292  0.00  0.00    +0.214 C 
ATOM      4  C   UNL     1       1.608  -1.656  -0.835  0.00  0.00    +0.106 C 
ATOM      5  C   UNL     1       1.446  -1.723   0.698  0.00  0.00    +0.226 C 
ATOM      6  O   UNL     1       0.814  -0.497   1.068  0.00  0.00    -0.327 OA
ATOM      7  N   UNL     1       0.603  -2.873   1.038  0.00  0.00    -0.311 N 
ATOM      8  C   UNL     1       1.018  -4.120   1.431  0.00  0.00    +0.052 A 
ATOM      9  C   UNL     1       2.299  -4.662   1.534  0.00  0.00    +0.026 A 
ATOM     10  C   UNL     1       2.399  -5.968   1.982  0.00  0.00    +0.002 A 
ATOM     11  C   UNL     1       1.286  -6.721   2.315  0.00  0.00    +0.001 A 
ATOM     12  C   UNL     1       0.003  -6.210   2.217  0.00  0.00    +0.010 A 
ATOM     13  C   UNL     1      -0.119  -4.895   1.765  0.00  0.00    +0.008 A 
ATOM     14  C   UNL     1      -1.288  -4.055   1.522  0.00  0.00    +0.022 A 
ATOM     15  C   UNL     1      -0.786  -2.841   1.056  0.00  0.00    +0.077 A 
ATOM     16  C   UNL     1      -1.657  -1.832   0.631  0.00  0.00    +0.077 A 
ATOM     17  N   UNL     1      -1.360  -0.534   0.109  0.00  0.00    -0.306 N 
ATOM     18  C   UNL     1      -2.527   0.110  -0.228  0.00  0.00    +0.053 A 
ATOM     19  C   UNL     1      -2.738   1.343  -0.842  0.00  0.00    +0.026 A 
ATOM     20  C   UNL     1      -4.052   1.737  -1.034  0.00  0.00    +0.002 A 
ATOM     21  C   UNL     1      -5.122   0.952  -0.641  0.00  0.00    +0.001 A 
ATOM     22  C   UNL     1      -4.939  -0.280  -0.035  0.00  0.00    +0.010 A 
ATOM     23  C   UNL     1      -3.622  -0.696   0.162  0.00  0.00    +0.008 A 
ATOM     24  C   UNL     1      -3.044  -2.020   0.704  0.00  0.00    +0.015 A 
ATOM     25  C   UNL     1      -3.545  -3.202   1.239  0.00  0.00    -0.008 A 
ATOM     26  C   UNL     1      -2.687  -4.220   1.650  0.00  0.00    +0.052 A 
ATOM     27  C   UNL     1      -3.501  -5.331   2.167  0.00  0.00    +0.245 C 
ATOM     28  O   UNL     1      -3.053  -6.369   2.615  0.00  0.00    -0.270 OA
ATOM     29  N   UNL     1      -4.809  -5.038   2.074  0.00  0.00    -0.307 N 
ATOM     30  C   UNL     1      -4.948  -3.699   1.491  0.00  0.00    +0.141 C 
ATOM     31  H   UNL     1      -5.539  -5.615   2.347  0.00  0.00    +0.149 HD
ENDROOT
BRANCH   3  32
ATOM     32  C   UNL     1      -0.387  -1.070  -2.229  0.00  0.00    +0.344 C 
ATOM     33  O   UNL     1      -1.439  -1.472  -1.792  0.00  0.00    -0.247 OA
BRANCH  32  34
ATOM     34  O   UNL     1      -0.151  -1.108  -3.550  0.00  0.00    -0.466 OA
ATOM     35  C   UNL     1      -1.188  -1.636  -4.379  0.00  0.00    +0.280 C 
ENDBRANCH  32  34
ENDBRANCH   3  32
BRANCH   3  36
ATOM     36  O   UNL     1       1.403   0.516  -1.927  0.00  0.00    -0.374 OA
ATOM     37  H   UNL     1       1.840   0.245  -2.746  0.00  0.00    +0.211 HD
ENDBRANCH   3  36
TORSDOF 3
