REMARK  Name = CHEMBL498088
REMARK  12 active torsions:
REMARK  status: ('A' for Active; 'I' for Inactive)
REMARK    1  A    between atoms: C_1  and  C_2
REMARK    2  A    between atoms: N_4  and  C_5
REMARK    3  A    between atoms: N_4  and  C_11
REMARK    4  A    between atoms: C_5  and  C_6
REMARK    5  A    between atoms: N_8  and  C_9
REMARK    6  A    between atoms: N_8  and  C_10
REMARK    7  A    between atoms: C_14  and  N_17
REMARK    8  A    between atoms: N_17  and  C_18
REMARK    9  A    between atoms: C_18  and  C_33
REMARK   10  A    between atoms: C_23  and  C_29
REMARK   11  A    between atoms: C_29  and  O_31
REMARK   12  A    between atoms: O_31  and  C_32
REMARK                            x       y       z     vdW  Elec       q    Type
REMARK                         _______ _______ _______ _____ _____    ______ ____
ROOT
ATOM      1  C   UNL     1       1.149   3.537  -6.094  0.00  0.00    +0.051 C 
ATOM      2  C   UNL     1       1.433   4.288  -7.231  0.00  0.00    +0.068 C 
ATOM      3  C   UNL     1       1.405   3.827  -8.632  0.00  0.00    +0.010 A 
ATOM      4  C   UNL     1       1.114   2.603  -9.234  0.00  0.00    +0.011 A 
ATOM      5  C   UNL     1       1.175   2.478 -10.592  0.00  0.00    +0.016 A 
ATOM      6  C   UNL     1       1.530   3.577 -11.384  0.00  0.00    +0.061 A 
ATOM      7  C   UNL     1       1.824   4.806 -10.791  0.00  0.00    +0.039 A 
ATOM      8  C   UNL     1       1.763   4.938  -9.415  0.00  0.00    +0.042 A 
ATOM      9  N   UNL     1       1.996   6.012  -8.564  0.00  0.00    -0.281 N 
ATOM     10  C   UNL     1       1.804   5.658  -7.282  0.00  0.00    +0.251 C 
ATOM     11  O   UNL     1       1.930   6.394  -6.318  0.00  0.00    -0.270 OA
ATOM     12  H   UNL     1       2.258   6.899  -8.857  0.00  0.00    +0.155 HD
ENDROOT
BRANCH   1  13
ATOM     13  C   UNL     1       1.093   4.191  -4.774  0.00  0.00    -0.003 A 
ATOM     14  C   UNL     1       1.829   3.676  -3.703  0.00  0.00    +0.010 A 
ATOM     15  C   UNL     1       1.771   4.293  -2.471  0.00  0.00    +0.001 A 
ATOM     16  C   UNL     1       0.986   5.419  -2.294  0.00  0.00    +0.000 A 
ATOM     17  C   UNL     1       0.255   5.935  -3.349  0.00  0.00    +0.001 A 
ATOM     18  C   UNL     1       0.307   5.332  -4.589  0.00  0.00    +0.010 A 
ENDBRANCH   1  13
BRANCH   1  19
ATOM     19  N   UNL     1       0.922   2.191  -6.202  0.00  0.00    -0.313 N 
ATOM     20  H   UNL     1       1.604   1.613  -6.580  0.00  0.00    +0.152 HD
BRANCH  19  24
ATOM     21  C   UNL     1      -2.694   0.577  -4.904  0.00  0.00    +0.037 A 
ATOM     22  C   UNL     1      -1.659  -0.263  -5.294  0.00  0.00    +0.025 A 
ATOM     23  C   UNL     1      -0.461   0.271  -5.724  0.00  0.00    +0.025 A 
ATOM     24  C   UNL     1      -0.291   1.649  -5.767  0.00  0.00    +0.031 A 
ATOM     25  C   UNL     1      -1.327   2.489  -5.377  0.00  0.00    +0.025 A 
ATOM     26  C   UNL     1      -2.526   1.955  -4.952  0.00  0.00    +0.025 A 
BRANCH  21  30
ATOM     27  C   UNL     1      -5.542  -0.492  -2.685  0.00  0.00    +0.109 C 
ATOM     28  C   UNL     1      -4.297   0.193  -3.186  0.00  0.00    +0.217 C 
ATOM     29  O   UNL     1      -3.643   0.887  -2.437  0.00  0.00    -0.276 OA
ATOM     30  N   UNL     1      -3.909   0.034  -4.468  0.00  0.00    -0.263 N 
BRANCH  30  31
ATOM     31  C   UNL     1      -4.760  -0.705  -5.404  0.00  0.00    +0.209 C 
BRANCH  31  32
ATOM     32  C   UNL     1      -5.682   0.254  -6.110  0.00  0.00    +0.233 C 
ATOM     33  O   UNL     1      -5.635   1.439  -5.857  0.00  0.00    -0.274 OA
ATOM     34  N   UNL     1      -6.561  -0.205  -7.023  0.00  0.00    -0.306 N 
ATOM     35  C   UNL     1      -7.458   0.728  -7.710  0.00  0.00    +0.131 C 
ATOM     36  C   UNL     1      -6.619  -1.636  -7.329  0.00  0.00    +0.131 C 
ENDBRANCH  31  32
ENDBRANCH  30  31
ENDBRANCH  21  30
ENDBRANCH  19  24
ENDBRANCH   1  19
BRANCH   6  37
ATOM     37  C   UNL     1       1.595   3.434 -12.850  0.00  0.00    +0.339 C 
ATOM     38  O   UNL     1       1.902   4.386 -13.540  0.00  0.00    -0.245 OA
BRANCH  37  39
ATOM     39  O   UNL     1       1.312   2.248 -13.425  0.00  0.00    -0.464 OA
ATOM     40  C   UNL     1       1.395   2.182 -14.850  0.00  0.00    +0.280 C 
ENDBRANCH  37  39
ENDBRANCH   6  37
TORSDOF 8
