REMARK  Name = CHEMBL204524
REMARK  3 active torsions:
REMARK  status: ('A' for Active; 'I' for Inactive)
REMARK    1  A    between atoms: C_1  and  N_2
REMARK    2  A    between atoms: C_15  and  C_18
REMARK    3  A    between atoms: C_19  and  N_29
REMARK                            x       y       z     vdW  Elec       q    Type
REMARK                         _______ _______ _______ _____ _____    ______ ____
ROOT
ATOM      1  C   UNL     1      -0.678   2.395   1.682  0.00  0.00    -0.096 C 
ATOM      2  N   UNL     1      -0.729   0.958   1.385  0.00  0.00    +0.380 N 
ATOM      3  C   UNL     1      -2.108   0.476   1.540  0.00  0.00    -0.060 C 
ATOM      4  C   UNL     1      -2.184  -0.995   1.120  0.00  0.00    +0.088 C 
ATOM      5  N   UNL     1      -1.186  -1.753   1.890  0.00  0.00    -0.319 N 
ATOM      6  C   UNL     1       0.195  -1.246   1.923  0.00  0.00    +0.088 C 
ATOM      7  C   UNL     1       0.159   0.237   2.305  0.00  0.00    -0.060 C 
ATOM      8  C   UNL     1      -1.538  -2.915   2.569  0.00  0.00    +0.124 A 
ATOM      9  C   UNL     1      -2.787  -3.490   2.341  0.00  0.00    +0.046 A 
ATOM     10  C   UNL     1      -3.138  -4.634   3.006  0.00  0.00    +0.035 A 
ATOM     11  C   UNL     1      -2.218  -5.192   3.903  0.00  0.00    +0.109 A 
ATOM     12  C   UNL     1      -0.975  -4.562   4.086  0.00  0.00    +0.160 A 
ATOM     13  N   UNL     1      -0.678  -3.458   3.415  0.00  0.00    -0.213 NA
ATOM     14  N   UNL     1      -0.291  -5.324   5.011  0.00  0.00    -0.323 N 
ATOM     15  C   UNL     1      -1.106  -6.371   5.360  0.00  0.00    +0.147 A 
ATOM     16  N   UNL     1      -2.240  -6.286   4.704  0.00  0.00    -0.226 NA
ATOM     17  H   UNL     1       0.601  -5.153   5.350  0.00  0.00    +0.169 HD
ATOM     18  H   UNL     1      -0.426   0.801   0.435  0.00  0.00    -0.082 HD
ENDROOT
BRANCH  15  19
ATOM     19  C   UNL     1      -0.762  -7.429   6.325  0.00  0.00    +0.103 A 
ATOM     20  C   UNL     1      -1.607  -8.527   6.494  0.00  0.00    +0.050 A 
ATOM     21  C   UNL     1      -1.220  -9.555   7.468  0.00  0.00    +0.020 A 
ATOM     22  C   UNL     1      -2.020 -10.680   7.685  0.00  0.00    +0.012 A 
ATOM     23  C   UNL     1      -1.634 -11.621   8.598  0.00  0.00    +0.001 A 
ATOM     24  C   UNL     1      -0.454 -11.469   9.311  0.00  0.00    +0.002 A 
ATOM     25  C   UNL     1       0.350 -10.367   9.113  0.00  0.00    +0.026 A 
ATOM     26  C   UNL     1      -0.022  -9.396   8.188  0.00  0.00    +0.051 A 
ATOM     27  N   UNL     1       0.770  -8.286   7.974  0.00  0.00    -0.321 N 
ATOM     28  C   UNL     1       0.430  -7.340   7.083  0.00  0.00    +0.262 A 
ATOM     29  O   UNL     1       1.164  -6.381   6.925  0.00  0.00    -0.267 OA
ATOM     30  H   UNL     1       1.593  -8.188   8.477  0.00  0.00    +0.169 HD
BRANCH  20  31
ATOM     31  N   UNL     1      -2.769  -8.643   5.769  0.00  0.00    -0.357 N 
ATOM     32  H   UNL     1      -2.907  -8.092   4.983  0.00  0.00    +0.142 HD
ATOM     33  H   UNL     1      -3.451  -9.275   6.045  0.00  0.00    +0.142 HD
ENDBRANCH  20  31
ENDBRANCH  15  19
TORSDOF 2
