REMARK  Name = CHEMBL413621
REMARK  8 active torsions:
REMARK  status: ('A' for Active; 'I' for Inactive)
REMARK    1  A    between atoms: C_1  and  N_2
REMARK    2  A    between atoms: C_3  and  C_5
REMARK    3  A    between atoms: C_7  and  O_11
REMARK    4  A    between atoms: O_11  and  C_12
REMARK    5  A    between atoms: N_21  and  C_22
REMARK    6  A    between atoms: C_26  and  C_28
REMARK    7  A    between atoms: C_28  and  N_29
REMARK    8  A    between atoms: N_32  and  C_35
REMARK                            x       y       z     vdW  Elec       q    Type
REMARK                         _______ _______ _______ _____ _____    ______ ____
ROOT
ATOM      1  C   UNL     1       1.129  -6.877  -2.028  0.00  0.00    +0.131 A 
ATOM      2  C   UNL     1       1.788  -6.409  -3.161  0.00  0.00    +0.048 A 
ATOM      3  C   UNL     1       2.291  -7.292  -4.090  0.00  0.00    +0.033 A 
ATOM      4  C   UNL     1       2.142  -8.667  -3.894  0.00  0.00    +0.091 A 
ATOM      5  C   UNL     1       1.477  -9.136  -2.750  0.00  0.00    +0.071 A 
ATOM      6  C   UNL     1       0.979  -8.237  -1.819  0.00  0.00    +0.074 A 
ATOM      7  N   UNL     1       1.488 -10.519  -2.837  0.00  0.00    -0.326 N 
ATOM      8  C   UNL     1       2.138 -10.846  -3.994  0.00  0.00    +0.198 A 
ATOM      9  N   UNL     1       2.520  -9.758  -4.613  0.00  0.00    -0.214 NA
ATOM     10  N   UNL     1       2.357 -12.133  -4.443  0.00  0.00    -0.285 N 
ATOM     11  H   UNL     1       1.968 -12.885  -3.970  0.00  0.00    +0.155 HD
ATOM     12  H   UNL     1       1.107 -11.139  -2.196  0.00  0.00    +0.169 HD
ENDROOT
BRANCH  10  13
ATOM     13  C   UNL     1       3.142 -12.353  -5.580  0.00  0.00    +0.034 A 
ATOM     14  C   UNL     1       4.112 -11.429  -5.945  0.00  0.00    +0.025 A 
ATOM     15  C   UNL     1       4.885 -11.648  -7.068  0.00  0.00    +0.022 A 
ATOM     16  C   UNL     1       4.694 -12.787  -7.830  0.00  0.00    +0.045 A 
ATOM     17  C   UNL     1       3.727 -13.710  -7.469  0.00  0.00    -0.013 A 
ATOM     18  C   UNL     1       2.955 -13.498  -6.343  0.00  0.00    +0.029 A 
ATOM     19 CL   UNL     1       5.667 -13.059  -9.242  0.00  0.00    -0.083 Cl
BRANCH  17  20
ATOM     20  C   UNL     1       3.521 -14.949  -8.302  0.00  0.00    +0.121 C 
BRANCH  20  21
ATOM     21  N   UNL     1       2.815 -14.595  -9.540  0.00  0.00    -0.302 NA
ATOM     22  C   UNL     1       1.446 -14.140  -9.255  0.00  0.00    +0.066 C 
ATOM     23  C   UNL     1       0.767 -13.725 -10.562  0.00  0.00    -0.064 C 
ATOM     24  N   UNL     1       0.739 -14.868 -11.483  0.00  0.00    +0.379 N 
ATOM     25  C   UNL     1       2.113 -15.295 -11.778  0.00  0.00    -0.064 C 
ATOM     26  C   UNL     1       2.804 -15.723 -10.481  0.00  0.00    +0.066 C 
ATOM     27  C   UNL     1       0.070 -14.475 -12.731  0.00  0.00    -0.096 C 
ATOM     28  H   UNL     1       0.234 -15.631 -11.058  0.00  0.00    -0.082 HD
ENDBRANCH  20  21
ENDBRANCH  17  20
ENDBRANCH  10  13
BRANCH   1  29
ATOM     29  O   UNL     1       0.637  -5.994  -1.119  0.00  0.00    -0.456 OA
BRANCH  29  32
ATOM     30  C   UNL     1      -2.264  -4.772  -2.961  0.00  0.00    +0.129 A 
ATOM     31  C   UNL     1      -1.094  -5.472  -2.683  0.00  0.00    +0.079 A 
ATOM     32  C   UNL     1      -0.504  -5.329  -1.430  0.00  0.00    +0.132 A 
ATOM     33  C   UNL     1      -1.115  -4.487  -0.504  0.00  0.00    +0.066 A 
ATOM     34  C   UNL     1      -2.277  -3.825  -0.854  0.00  0.00    +0.115 A 
ATOM     35  N   UNL     1      -2.808  -3.976  -2.049  0.00  0.00    -0.250 NA
BRANCH  30  38
ATOM     36  C   UNL     1      -4.669  -4.371  -5.881  0.00  0.00    +0.128 C 
ATOM     37  N   UNL     1      -4.035  -4.233  -4.568  0.00  0.00    -0.313 N 
ATOM     38  C   UNL     1      -2.905  -4.912  -4.290  0.00  0.00    +0.262 C 
ATOM     39  O   UNL     1      -2.411  -5.639  -5.129  0.00  0.00    -0.269 OA
ATOM     40  H   UNL     1      -4.429  -3.652  -3.898  0.00  0.00    +0.149 HD
ENDBRANCH  30  38
ENDBRANCH  29  32
ENDBRANCH   1  29
TORSDOF 6
