REMARK  Name = CHEMBL244288
REMARK  9 active torsions:
REMARK  status: ('A' for Active; 'I' for Inactive)
REMARK    1  A    between atoms: C_1  and  O_2
REMARK    2  A    between atoms: O_2  and  C_3
REMARK    3  A    between atoms: C_3  and  N_5
REMARK    4  A    between atoms: C_11  and  O_16
REMARK    5  A    between atoms: O_16  and  C_17
REMARK    6  A    between atoms: C_20  and  C_23
REMARK    7  A    between atoms: C_23  and  C_24
REMARK    8  A    between atoms: N_26  and  C_27
REMARK    9  A    between atoms: C_29  and  C_34
REMARK                            x       y       z     vdW  Elec       q    Type
REMARK                         _______ _______ _______ _____ _____    ______ ____
ROOT
ATOM      1  C   UNL     1      -8.379  -4.960   0.017  0.00  0.00    +0.128 A 
ATOM      2  C   UNL     1      -7.615  -6.117  -0.050  0.00  0.00    +0.046 A 
ATOM      3  C   UNL     1      -8.232  -7.339  -0.234  0.00  0.00    +0.008 A 
ATOM      4  C   UNL     1      -9.607  -7.410  -0.353  0.00  0.00    -0.038 A 
ATOM      5  C   UNL     1     -10.370  -6.259  -0.288  0.00  0.00    +0.008 A 
ATOM      6  C   UNL     1      -9.759  -5.035  -0.097  0.00  0.00    +0.046 A 
ENDROOT
BRANCH   1   7
ATOM      7  O   UNL     1      -7.775  -3.756   0.198  0.00  0.00    -0.456 OA
BRANCH   7  14
ATOM      8  N   UNL     1     -12.450   1.309   2.123  0.00  0.00    -0.109 NA
ATOM      9  C   UNL     1     -11.562   0.505   1.550  0.00  0.00    +0.201 A 
ATOM     10  N   UNL     1     -11.055  -0.630   2.103  0.00  0.00    -0.326 N 
ATOM     11  H   UNL     1     -11.281  -0.986   2.976  0.00  0.00    +0.169 HD
ATOM     12  C   UNL     1     -10.157  -1.192   1.200  0.00  0.00    +0.069 A 
ATOM     13  C   UNL     1      -9.366  -2.330   1.239  0.00  0.00    +0.074 A 
ATOM     14  C   UNL     1      -8.552  -2.641   0.162  0.00  0.00    +0.131 A 
ATOM     15  C   UNL     1      -8.527  -1.815  -0.955  0.00  0.00    +0.048 A 
ATOM     16  C   UNL     1      -9.312  -0.681  -0.998  0.00  0.00    +0.031 A 
ATOM     17  C   UNL     1     -10.131  -0.364   0.076  0.00  0.00    +0.066 A 
ATOM     18  N   UNL     1     -11.018   0.683   0.317  0.00  0.00    -0.326 N 
ATOM     19  H   UNL     1     -11.213   1.414  -0.290  0.00  0.00    +0.169 HD
BRANCH   8  20
ATOM     20  C   UNL     1     -12.836   1.089   3.383  0.00  0.00    +0.427 C 
ATOM     21  O   UNL     1     -12.444   0.101   3.976  0.00  0.00    -0.224 OA
BRANCH  20  23
ATOM     22  C   UNL     1     -14.030   1.666   5.347  0.00  0.00    +0.282 C 
ATOM     23  O   UNL     1     -13.659   1.964   3.999  0.00  0.00    -0.452 OA
ENDBRANCH  20  23
ENDBRANCH   8  20
ENDBRANCH   7  14
ENDBRANCH   1   7
BRANCH   4  24
ATOM     24  C   UNL     1     -10.277  -8.745  -0.555  0.00  0.00    +0.131 C 
BRANCH  24  25
ATOM     25  C   UNL     1     -10.614  -9.347   0.785  0.00  0.00    +0.222 C 
ATOM     26  O   UNL     1     -10.337  -8.750   1.804  0.00  0.00    -0.275 OA
ATOM     27  N   UNL     1     -11.222 -10.547   0.851  0.00  0.00    -0.283 N 
ATOM     28  H   UNL     1     -11.392 -11.050   0.039  0.00  0.00    +0.155 HD
BRANCH  27  29
ATOM     29  C   UNL     1     -11.609 -11.069   2.092  0.00  0.00    +0.070 A 
ATOM     30  C   UNL     1     -10.948 -10.677   3.248  0.00  0.00    +0.038 A 
ATOM     31  C   UNL     1     -11.332 -11.192   4.471  0.00  0.00    +0.057 A 
ATOM     32  C   UNL     1     -12.373 -12.099   4.545  0.00  0.00    +0.015 A 
ATOM     33  C   UNL     1     -13.034 -12.494   3.396  0.00  0.00    +0.041 A 
ATOM     34  C   UNL     1     -12.659 -11.977   2.169  0.00  0.00    +0.145 A 
ATOM     35  F   UNL     1     -13.308 -12.358   1.048  0.00  0.00    -0.204 F 
BRANCH  31  36
ATOM     36  C   UNL     1     -10.614 -10.766   5.725  0.00  0.00    +0.417 C 
ATOM     37  F   UNL     1     -11.247  -9.641   6.265  0.00  0.00    -0.166 F 
ATOM     38  F   UNL     1     -10.645 -11.809   6.657  0.00  0.00    -0.166 F 
ATOM     39  F   UNL     1      -9.286 -10.453   5.420  0.00  0.00    -0.166 F 
ENDBRANCH  31  36
ENDBRANCH  27  29
ENDBRANCH  24  25
ENDBRANCH   4  24
TORSDOF 8
