REMARK  Name = CHEMBL396265
REMARK  7 active torsions:
REMARK  status: ('A' for Active; 'I' for Inactive)
REMARK    1  A    between atoms: C_1  and  O_2
REMARK    2  A    between atoms: O_2  and  C_3
REMARK    3  A    between atoms: C_8  and  O_9
REMARK    4  A    between atoms: O_9  and  C_10
REMARK    5  A    between atoms: C_14  and  O_15
REMARK    6  A    between atoms: O_15  and  C_16
REMARK    7  A    between atoms: N_26  and  C_27
REMARK                            x       y       z     vdW  Elec       q    Type
REMARK                         _______ _______ _______ _____ _____    ______ ____
ROOT
ATOM      1  C   UNL     1       5.098   2.426  -4.542  0.00  0.00    +0.133 A 
ATOM      2  C   UNL     1       5.447   1.819  -5.745  0.00  0.00    +0.048 A 
ATOM      3  C   UNL     1       5.517   2.560  -6.906  0.00  0.00    +0.031 A 
ATOM      4  C   UNL     1       5.239   3.918  -6.877  0.00  0.00    +0.068 A 
ATOM      5  C   UNL     1       4.886   4.539  -5.668  0.00  0.00    +0.094 A 
ATOM      6  C   UNL     1       4.813   3.777  -4.499  0.00  0.00    +0.076 A 
ATOM      7  N   UNL     1       4.673   5.853  -5.939  0.00  0.00    -0.214 NA
ATOM      8  C   UNL     1       4.868   6.076  -7.215  0.00  0.00    +0.198 A 
ATOM      9  N   UNL     1       5.220   4.915  -7.841  0.00  0.00    -0.326 N 
ATOM     10  H   UNL     1       5.420   4.807  -8.784  0.00  0.00    +0.169 HD
ATOM     11  N   UNL     1       4.738   7.303  -7.835  0.00  0.00    -0.285 N 
ATOM     12  H   UNL     1       4.813   7.369  -8.799  0.00  0.00    +0.155 HD
ENDROOT
BRANCH  11  13
ATOM     13  C   UNL     1       4.497   8.450  -7.071  0.00  0.00    +0.034 A 
ATOM     14  C   UNL     1       3.822   8.351  -5.861  0.00  0.00    +0.025 A 
ATOM     15  C   UNL     1       3.587   9.485  -5.109  0.00  0.00    +0.022 A 
ATOM     16  C   UNL     1       4.022  10.719  -5.560  0.00  0.00    +0.041 A 
ATOM     17  C   UNL     1       4.696  10.820  -6.765  0.00  0.00    +0.022 A 
ATOM     18  C   UNL     1       4.939   9.688  -7.518  0.00  0.00    +0.025 A 
ATOM     19 CL   UNL     1       3.724  12.143  -4.612  0.00  0.00    -0.084 Cl
ENDBRANCH  11  13
BRANCH   1  20
ATOM     20  O   UNL     1       5.032   1.685  -3.404  0.00  0.00    -0.437 OA
BRANCH  20  30
ATOM     21  C   UNL     1       4.936  -0.342   0.288  0.00  0.00    +0.162 A 
ATOM     22  C   UNL     1       4.926   0.298  -0.918  0.00  0.00    +0.064 A 
ATOM     23  C   UNL     1       6.022   1.085  -1.295  0.00  0.00    +0.066 A 
ATOM     24  C   UNL     1       7.133   1.212  -0.424  0.00  0.00    +0.082 A 
ATOM     25  C   UNL     1       7.122   0.546   0.808  0.00  0.00    +0.078 A 
ATOM     26  C   UNL     1       6.029  -0.216   1.157  0.00  0.00    +0.164 A 
ATOM     27  N   UNL     1       8.170   1.972  -0.808  0.00  0.00    -0.235 NA
ATOM     28  C   UNL     1       8.151   2.583  -1.968  0.00  0.00    +0.225 A 
ATOM     29  N   UNL     1       7.136   2.492  -2.813  0.00  0.00    -0.201 NA
ATOM     30  C   UNL     1       6.063   1.768  -2.531  0.00  0.00    +0.231 A 
BRANCH  21  32
ATOM     31  C   UNL     1       2.789  -1.195  -0.276  0.00  0.00    +0.277 C 
ATOM     32  O   UNL     1       3.872  -1.106   0.653  0.00  0.00    -0.491 OA
ENDBRANCH  21  32
BRANCH  26  33
ATOM     33  O   UNL     1       6.013  -0.858   2.355  0.00  0.00    -0.491 OA
ATOM     34  C   UNL     1       7.155  -0.691   3.196  0.00  0.00    +0.277 C 
ENDBRANCH  26  33
ENDBRANCH  20  30
ENDBRANCH   1  20
TORSDOF 5
