REMARK  Name = CHEMBL119276
REMARK  6 active torsions:
REMARK  status: ('A' for Active; 'I' for Inactive)
REMARK    1  A    between atoms: C_1  and  C_2
REMARK    2  A    between atoms: N_7  and  C_10
REMARK    3  A    between atoms: C_10  and  C_11
REMARK    4  A    between atoms: C_11  and  O_12
REMARK    5  A    between atoms: O_12  and  C_13
REMARK    6  A    between atoms: C_20  and  C_23
REMARK                            x       y       z     vdW  Elec       q    Type
REMARK                         _______ _______ _______ _____ _____    ______ ____
ROOT
ATOM      1  C   UNL     1      -3.539  -6.175   1.657  0.00  0.00    +0.121 A 
ATOM      2  C   UNL     1      -4.740  -6.714   1.202  0.00  0.00    +0.047 A 
ATOM      3  C   UNL     1      -4.854  -8.064   0.953  0.00  0.00    +0.030 A 
ATOM      4  C   UNL     1      -3.764  -8.903   1.155  0.00  0.00    +0.047 A 
ATOM      5  C   UNL     1      -2.548  -8.362   1.614  0.00  0.00    +0.004 A 
ATOM      6  C   UNL     1      -2.443  -6.989   1.858  0.00  0.00    +0.055 A 
ATOM      7  C   UNL     1      -1.615  -9.481   1.723  0.00  0.00    +0.036 A 
ATOM      8  C   UNL     1      -2.288 -10.597   1.340  0.00  0.00    +0.053 A 
ATOM      9  N   UNL     1      -3.577 -10.261   0.997  0.00  0.00    -0.354 N 
ATOM     10  H   UNL     1      -4.254 -10.885   0.691  0.00  0.00    +0.166 HD
ENDROOT
BRANCH   8  11
ATOM     11  C   UNL     1      -1.723 -11.960   1.296  0.00  0.00    +0.063 A 
ATOM     12  C   UNL     1      -1.579 -12.617   0.093  0.00  0.00    +0.025 A 
ATOM     13  C   UNL     1      -1.033 -13.925   0.082  0.00  0.00    -0.001 A 
ATOM     14  C   UNL     1      -0.876 -14.616  -1.129  0.00  0.00    +0.010 A 
ATOM     15  C   UNL     1      -0.349 -15.875  -1.129  0.00  0.00    +0.001 A 
ATOM     16  C   UNL     1       0.034 -16.481   0.060  0.00  0.00    +0.002 A 
ATOM     17  C   UNL     1      -0.111 -15.822   1.261  0.00  0.00    +0.026 A 
ATOM     18  C   UNL     1      -0.646 -14.537   1.288  0.00  0.00    +0.049 A 
ATOM     19  N   UNL     1      -0.792 -13.873   2.490  0.00  0.00    -0.322 N 
ATOM     20  C   UNL     1      -1.301 -12.628   2.533  0.00  0.00    +0.258 A 
ATOM     21  O   UNL     1      -1.418 -12.056   3.603  0.00  0.00    -0.267 OA
ATOM     22  H   UNL     1      -0.520 -14.308   3.313  0.00  0.00    +0.169 HD
ENDBRANCH   8  11
BRANCH   1  23
ATOM     23  O   UNL     1      -3.444  -4.839   1.897  0.00  0.00    -0.494 OA
BRANCH  23  24
ATOM     24  C   UNL     1      -4.615  -4.054   1.667  0.00  0.00    +0.210 C 
BRANCH  24  25
ATOM     25  C   UNL     1      -4.318  -2.588   1.990  0.00  0.00    -0.037 C 
BRANCH  25  32
ATOM     26  C   UNL     1      -2.470   0.547  -3.099  0.00  0.00    +0.109 C 
ATOM     27  C   UNL     1      -2.029   0.682  -1.665  0.00  0.00    +0.212 C 
ATOM     28  O   UNL     1      -1.554   1.727  -1.272  0.00  0.00    -0.276 OA
ATOM     29  N   UNL     1      -2.161  -0.358  -0.818  0.00  0.00    -0.305 N 
ATOM     30  C   UNL     1      -2.728  -1.637  -1.274  0.00  0.00    +0.089 C 
ATOM     31  C   UNL     1      -3.832  -2.054  -0.296  0.00  0.00    -0.059 C 
ATOM     32  N   UNL     1      -3.291  -2.083   1.068  0.00  0.00    +0.384 N 
ATOM     33  C   UNL     1      -2.892  -0.730   1.477  0.00  0.00    -0.059 C 
ATOM     34  C   UNL     1      -1.736  -0.249   0.586  0.00  0.00    +0.089 C 
ATOM     35  H   UNL     1      -2.488  -2.692   1.097  0.00  0.00    -0.082 HD
ENDBRANCH  25  32
ENDBRANCH  24  25
ENDBRANCH  23  24
ENDBRANCH   1  23
TORSDOF 5
