REMARK  Name = CHEMBL24133
REMARK  8 active torsions:
REMARK  status: ('A' for Active; 'I' for Inactive)
REMARK    1  A    between atoms: C_1  and  O_2
REMARK    2  A    between atoms: O_2  and  C_3
REMARK    3  A    between atoms: C_8  and  O_9
REMARK    4  A    between atoms: O_9  and  C_10
REMARK    5  A    between atoms: C_10  and  C_11
REMARK    6  A    between atoms: C_11  and  C_12
REMARK    7  A    between atoms: C_12  and  N_13
REMARK    8  A    between atoms: N_22  and  C_23
REMARK                            x       y       z     vdW  Elec       q    Type
REMARK                         _______ _______ _______ _____ _____    ______ ____
ROOT
ATOM      1  C   UNL     1      -0.034  -0.508  -1.435  0.00  0.00    +0.162 A 
ATOM      2  C   UNL     1       0.734   0.223  -2.296  0.00  0.00    +0.062 A 
ATOM      3  C   UNL     1       1.284  -0.391  -3.428  0.00  0.00    +0.044 A 
ATOM      4  C   UNL     1       1.041  -1.765  -3.674  0.00  0.00    +0.080 A 
ATOM      5  C   UNL     1       0.251  -2.495  -2.779  0.00  0.00    +0.078 A 
ATOM      6  C   UNL     1      -0.274  -1.869  -1.669  0.00  0.00    +0.164 A 
ATOM      7  N   UNL     1       1.580  -2.329  -4.766  0.00  0.00    -0.235 NA
ATOM      8  C   UNL     1       2.317  -1.619  -5.587  0.00  0.00    +0.223 A 
ATOM      9  N   UNL     1       2.571  -0.334  -5.398  0.00  0.00    -0.220 NA
ATOM     10  C   UNL     1       2.086   0.321  -4.351  0.00  0.00    +0.134 A 
ATOM     11  N   UNL     1       2.359   1.662  -4.166  0.00  0.00    -0.297 N 
ATOM     12  H   UNL     1       2.079   2.106  -3.350  0.00  0.00    +0.154 HD
ENDROOT
BRANCH  11  13
ATOM     13  C   UNL     1       3.039   2.380  -5.156  0.00  0.00    +0.068 A 
ATOM     14  C   UNL     1       3.099   1.890  -6.454  0.00  0.00    +0.027 A 
ATOM     15  C   UNL     1       3.770   2.602  -7.429  0.00  0.00    +0.022 A 
ATOM     16  C   UNL     1       4.383   3.802  -7.115  0.00  0.00    +0.044 A 
ATOM     17  C   UNL     1       4.325   4.294  -5.823  0.00  0.00    +0.060 A 
ATOM     18  C   UNL     1       3.650   3.590  -4.843  0.00  0.00    +0.146 A 
ATOM     19  F   UNL     1       3.589   4.073  -3.583  0.00  0.00    -0.203 F 
ATOM     20 CL   UNL     1       5.225   4.693  -8.345  0.00  0.00    -0.083 Cl
ENDBRANCH  11  13
BRANCH   1  22
ATOM     21  C   UNL     1      -0.287   1.478  -0.153  0.00  0.00    +0.277 C 
ATOM     22  O   UNL     1      -0.568   0.089  -0.337  0.00  0.00    -0.491 OA
ENDBRANCH   1  22
BRANCH   6  23
ATOM     23  O   UNL     1      -1.037  -2.577  -0.796  0.00  0.00    -0.488 OA
BRANCH  23  24
ATOM     24  C   UNL     1      -1.245  -3.960  -1.089  0.00  0.00    +0.227 C 
BRANCH  24  25
ATOM     25  C   UNL     1      -2.121  -4.586  -0.002  0.00  0.00    +0.022 C 
BRANCH  25  26
ATOM     26  C   UNL     1      -2.343  -6.067  -0.316  0.00  0.00    -0.076 C 
BRANCH  26  27
ATOM     27  N   UNL     1      -3.184  -6.668   0.728  0.00  0.00    +0.380 N 
ATOM     28  C   UNL     1      -4.565  -6.125   0.649  0.00  0.00    -0.079 C 
ATOM     29  C   UNL     1      -5.412  -7.204   1.367  0.00  0.00    -0.020 C 
ATOM     30  C   UNL     1      -4.737  -8.523   0.926  0.00  0.00    -0.020 C 
ATOM     31  C   UNL     1      -3.311  -8.124   0.505  0.00  0.00    -0.079 C 
ATOM     32  H   UNL     1      -2.790  -6.488   1.639  0.00  0.00    -0.082 HD
ENDBRANCH  26  27
ENDBRANCH  25  26
ENDBRANCH  24  25
ENDBRANCH  23  24
ENDBRANCH   6  23
TORSDOF 7
