REMARK  Name = CHEMBL394693
REMARK  10 active torsions:
REMARK  status: ('A' for Active; 'I' for Inactive)
REMARK    1  A    between atoms: C_1  and  C_2
REMARK    2  A    between atoms: C_5  and  N_23
REMARK    3  A    between atoms: C_7  and  O_8
REMARK    4  A    between atoms: O_8  and  C_9
REMARK    5  A    between atoms: C_10  and  C_15
REMARK    6  A    between atoms: N_21  and  C_22
REMARK    7  A    between atoms: C_24  and  C_26
REMARK    8  A    between atoms: C_30  and  C_32
REMARK    9  A    between atoms: C_32  and  C_33
REMARK   10  A    between atoms: C_32  and  C_34
REMARK                            x       y       z     vdW  Elec       q    Type
REMARK                         _______ _______ _______ _____ _____    ______ ____
ROOT
ATOM      1  C   UNL     1       0.004   1.306   0.506  0.00  0.00    +0.047 C 
ATOM      2  C   UNL     1       0.025  -0.186   0.294  0.00  0.00    -0.008 A 
ATOM      3  C   UNL     1      -0.018  -0.702  -0.987  0.00  0.00    +0.009 A 
ATOM      4  C   UNL     1       0.000  -2.069  -1.185  0.00  0.00    +0.024 A 
ATOM      5  C   UNL     1       0.064  -2.929  -0.096  0.00  0.00    +0.037 A 
ATOM      6  C   UNL     1       0.108  -2.413   1.192  0.00  0.00    +0.070 A 
ATOM      7  C   UNL     1       0.094  -1.040   1.386  0.00  0.00    +0.135 A 
ENDROOT
BRANCH   5   8
ATOM      8  N   UNL     1       0.082  -4.313  -0.296  0.00  0.00    -0.281 N 
ATOM      9  C   UNL     1       0.795  -5.104   0.529  0.00  0.00    +0.248 C 
ATOM     10  O   UNL     1       1.505  -4.609   1.383  0.00  0.00    -0.270 OA
ATOM     11  H   UNL     1      -0.419  -4.703  -1.030  0.00  0.00    +0.155 HD
BRANCH   9  12
ATOM     12  C   UNL     1       0.714  -6.574   0.397  0.00  0.00    +0.037 A 
ATOM     13  C   UNL     1      -0.096  -7.146  -0.586  0.00  0.00    +0.013 A 
ATOM     14  C   UNL     1      -0.167  -8.518  -0.704  0.00  0.00    +0.001 A 
ATOM     15  C   UNL     1       0.562  -9.328   0.149  0.00  0.00    +0.004 A 
ATOM     16  C   UNL     1       1.367  -8.768   1.125  0.00  0.00    -0.044 A 
ATOM     17  C   UNL     1       1.451  -7.396   1.251  0.00  0.00    +0.017 A 
BRANCH  16  18
ATOM     18  C   UNL     1       2.157  -9.657   2.050  0.00  0.00    +0.013 C 
ATOM     19  C   UNL     1       1.199 -10.559   2.832  0.00  0.00    +0.012 C 
ATOM     20  C   UNL     1       3.117 -10.521   1.230  0.00  0.00    +0.012 C 
ENDBRANCH  16  18
ENDBRANCH   9  12
ENDBRANCH   5   8
BRANCH   7  21
ATOM     21  O   UNL     1       0.143  -0.531   2.645  0.00  0.00    -0.437 OA
BRANCH  21  22
ATOM     22  C   UNL     1       1.320  -0.018   3.079  0.00  0.00    +0.230 A 
ATOM     23  C   UNL     1       1.442   0.421   4.404  0.00  0.00    +0.062 A 
ATOM     24  C   UNL     1       2.664   0.946   4.830  0.00  0.00    +0.017 A 
ATOM     25  C   UNL     1       3.706   1.011   3.920  0.00  0.00    +0.021 A 
ATOM     26  C   UNL     1       3.509   0.559   2.628  0.00  0.00    +0.114 A 
ATOM     27  N   UNL     1       2.347   0.061   2.250  0.00  0.00    -0.220 NA
BRANCH  23  28
ATOM     28  C   UNL     1       0.295   0.329   5.337  0.00  0.00    +0.081 A 
ATOM     29  C   UNL     1       0.416   0.772   6.657  0.00  0.00    +0.048 A 
ATOM     30  C   UNL     1      -0.682   0.666   7.491  0.00  0.00    +0.116 A 
ATOM     31  N   UNL     1      -1.807   0.152   7.019  0.00  0.00    -0.223 NA
ATOM     32  C   UNL     1      -1.894  -0.260   5.762  0.00  0.00    +0.215 A 
ATOM     33  N   UNL     1      -0.870  -0.172   4.929  0.00  0.00    -0.214 NA
ATOM     34  N   UNL     1      -3.089  -0.792   5.309  0.00  0.00    -0.317 N 
ATOM     35  C   UNL     1      -4.237  -0.892   6.213  0.00  0.00    +0.128 C 
ATOM     36  H   UNL     1      -3.166  -1.097   4.391  0.00  0.00    +0.149 HD
ENDBRANCH  23  28
ENDBRANCH  21  22
ENDBRANCH   7  21
TORSDOF 6
