REMARK  Name = CHEMBL410686
REMARK  7 active torsions:
REMARK  status: ('A' for Active; 'I' for Inactive)
REMARK    1  A    between atoms: C_1  and  C_2
REMARK    2  A    between atoms: C_6  and  N_12
REMARK    3  A    between atoms: C_15  and  C_28
REMARK    4  A    between atoms: C_16  and  C_22
REMARK    5  A    between atoms: C_25  and  C_27
REMARK    6  A    between atoms: C_28  and  C_29
REMARK    7  A    between atoms: C_28  and  C_30
REMARK                            x       y       z     vdW  Elec       q    Type
REMARK                         _______ _______ _______ _____ _____    ______ ____
ROOT
ATOM      1  N   UNL     1       0.532  -5.796  -1.155  0.00  0.00    -0.294 N 
ATOM      2  C   UNL     1       0.582  -6.933  -0.374  0.00  0.00    +0.151 A 
ATOM      3  C   UNL     1       0.495  -8.215  -0.968  0.00  0.00    +0.109 A 
ATOM      4  C   UNL     1       0.360  -8.648  -2.270  0.00  0.00    -0.002 A 
ATOM      5  C   UNL     1       0.332 -10.055  -2.231  0.00  0.00    +0.062 A 
ATOM      6  C   UNL     1       0.451 -10.433  -0.906  0.00  0.00    +0.126 A 
ATOM      7  N   UNL     1       0.549  -9.327  -0.148  0.00  0.00    -0.234 N 
ATOM      8  N   UNL     1       0.686  -9.128   1.233  0.00  0.00    -0.155 NA
ATOM      9  C   UNL     1       0.759  -7.918   1.716  0.00  0.00    +0.245 A 
ATOM     10  N   UNL     1       0.717  -6.838   0.939  0.00  0.00    -0.217 NA
ATOM     11  H   UNL     1       0.524  -5.872  -2.122  0.00  0.00    +0.154 HD
ENDROOT
BRANCH   1  17
ATOM     12  C   UNL     1       1.216   1.458   0.173  0.00  0.00    +0.063 C 
ATOM     13  C   UNL     1       0.988  -0.030   0.109  0.00  0.00    +0.015 A 
ATOM     14  C   UNL     1       1.297  -0.813  -0.937  0.00  0.00    +0.035 A 
ATOM     15  C   UNL     1       0.909  -2.178  -0.576  0.00  0.00    +0.056 A 
ATOM     16  C   UNL     1       0.973  -3.414  -1.226  0.00  0.00    +0.157 A 
ATOM     17  C   UNL     1       0.494  -4.531  -0.550  0.00  0.00    +0.087 A 
ATOM     18  C   UNL     1      -0.024  -4.380   0.732  0.00  0.00    +0.139 A 
ATOM     19  N   UNL     1      -0.071  -3.203   1.320  0.00  0.00    -0.235 NA
ATOM     20  C   UNL     1       0.372  -2.104   0.722  0.00  0.00    +0.141 A 
ATOM     21  N   UNL     1       0.440  -0.786   1.111  0.00  0.00    -0.343 N 
ATOM     22  H   UNL     1       0.141  -0.442   1.967  0.00  0.00    +0.167 HD
ATOM     23  F   UNL     1       1.482  -3.520  -2.473  0.00  0.00    -0.203 F 
ENDBRANCH   1  17
BRANCH   5  24
ATOM     24  C   UNL     1       0.200 -10.961  -3.392  0.00  0.00    +0.250 A 
ATOM     25  N   UNL     1       0.093 -10.604  -4.650  0.00  0.00    -0.107 NA
ATOM     26  N   UNL     1      -0.003 -11.657  -5.383  0.00  0.00    -0.112 NA
ATOM     27  C   UNL     1       0.039 -12.719  -4.630  0.00  0.00    +0.215 A 
ATOM     28  O   UNL     1       0.173 -12.308  -3.356  0.00  0.00    -0.420 OA
ATOM     29  C   UNL     1      -0.043 -14.148  -5.100  0.00  0.00    +0.111 C 
ENDBRANCH   5  24
BRANCH   4  30
ATOM     30  C   UNL     1       0.261  -7.781  -3.499  0.00  0.00    +0.016 C 
ATOM     31  C   UNL     1       1.469  -8.037  -4.402  0.00  0.00    +0.012 C 
ATOM     32  C   UNL     1      -1.024  -8.118  -4.258  0.00  0.00    +0.012 C 
ENDBRANCH   4  30
TORSDOF 3
