REMARK  Name = CHEMBL446367
REMARK  8 active torsions:
REMARK  status: ('A' for Active; 'I' for Inactive)
REMARK    1  A    between atoms: C_1  and  O_2
REMARK    2  A    between atoms: O_2  and  C_3
REMARK    3  A    between atoms: C_6  and  O_15
REMARK    4  A    between atoms: C_12  and  O_13
REMARK    5  A    between atoms: O_13  and  C_14
REMARK    6  A    between atoms: O_15  and  C_16
REMARK    7  A    between atoms: C_22  and  C_26
REMARK    8  A    between atoms: N_28  and  C_29
REMARK                            x       y       z     vdW  Elec       q    Type
REMARK                         _______ _______ _______ _____ _____    ______ ____
ROOT
ATOM      1  C   UNL     1       3.039   2.315  -5.109  0.00  0.00    +0.221 A 
ATOM      2  C   UNL     1       3.106   3.692  -5.060  0.00  0.00    +0.076 A 
ATOM      3  C   UNL     1       3.794   4.366  -6.082  0.00  0.00    -0.011 A 
ATOM      4  C   UNL     1       3.911   5.765  -6.109  0.00  0.00    +0.009 A 
ATOM      5  C   UNL     1       4.586   6.382  -7.117  0.00  0.00    +0.001 A 
ATOM      6  C   UNL     1       5.180   5.665  -8.148  0.00  0.00    +0.014 A 
ATOM      7  C   UNL     1       5.103   4.280  -8.184  0.00  0.00    +0.046 A 
ATOM      8  C   UNL     1       4.385   3.593  -7.114  0.00  0.00    +0.013 A 
ATOM      9  C   UNL     1       4.261   2.200  -7.075  0.00  0.00    +0.124 A 
ATOM     10  N   UNL     1       3.610   1.625  -6.090  0.00  0.00    -0.220 NA
ENDROOT
BRANCH   7  11
ATOM     11  C   UNL     1       5.733   3.518  -9.279  0.00  0.00    +0.249 C 
ATOM     12  O   UNL     1       5.575   2.314  -9.352  0.00  0.00    -0.270 OA
ATOM     13  N   UNL     1       6.484   4.155 -10.199  0.00  0.00    -0.281 N 
ATOM     14  H   UNL     1       6.558   5.122 -10.179  0.00  0.00    +0.155 HD
BRANCH  13  15
ATOM     15  C   UNL     1       7.157   3.423 -11.182  0.00  0.00    +0.034 A 
ATOM     16  C   UNL     1       8.405   3.839 -11.628  0.00  0.00    +0.025 A 
ATOM     17  C   UNL     1       9.067   3.114 -12.599  0.00  0.00    +0.022 A 
ATOM     18  C   UNL     1       8.488   1.973 -13.128  0.00  0.00    +0.041 A 
ATOM     19  C   UNL     1       7.245   1.556 -12.685  0.00  0.00    +0.022 A 
ATOM     20  C   UNL     1       6.581   2.275 -11.711  0.00  0.00    +0.025 A 
ATOM     21 CL   UNL     1       9.323   1.064 -14.348  0.00  0.00    -0.084 Cl
ENDBRANCH  13  15
ENDBRANCH   7  11
BRANCH   1  22
ATOM     22  O   UNL     1       2.378   1.649  -4.128  0.00  0.00    -0.437 OA
BRANCH  22  26
ATOM     23  C   UNL     1       5.710  -0.436  -2.635  0.00  0.00    +0.162 A 
ATOM     24  C   UNL     1       4.645   0.273  -3.111  0.00  0.00    +0.063 A 
ATOM     25  C   UNL     1       3.537  -0.407  -3.638  0.00  0.00    +0.044 A 
ATOM     26  C   UNL     1       2.418   0.294  -4.140  0.00  0.00    +0.141 A 
ATOM     27  C   UNL     1       1.363  -0.446  -4.645  0.00  0.00    +0.064 A 
ATOM     28  C   UNL     1       1.431  -1.833  -4.644  0.00  0.00    +0.086 A 
ATOM     29  N   UNL     1       2.476  -2.474  -4.175  0.00  0.00    -0.360 N 
ATOM     30  C   UNL     1       3.531  -1.823  -3.673  0.00  0.00    +0.054 A 
ATOM     31  C   UNL     1       4.642  -2.525  -3.175  0.00  0.00    +0.075 A 
ATOM     32  C   UNL     1       5.709  -1.838  -2.673  0.00  0.00    +0.163 A 
ATOM     33  H   UNL     1       2.483  -3.444  -4.193  0.00  0.00    +0.165 HD
BRANCH  23  35
ATOM     34  C   UNL     1       6.724   1.651  -2.114  0.00  0.00    +0.277 C 
ATOM     35  O   UNL     1       6.784   0.223  -2.125  0.00  0.00    -0.491 OA
ENDBRANCH  23  35
BRANCH  32  36
ATOM     36  O   UNL     1       6.784  -2.522  -2.199  0.00  0.00    -0.491 OA
ATOM     37  C   UNL     1       6.725  -3.948  -2.264  0.00  0.00    +0.277 C 
ENDBRANCH  32  36
ENDBRANCH  22  26
ENDBRANCH   1  22
TORSDOF 6
