REMARK  Name = CHEMBL224918
REMARK  7 active torsions:
REMARK  status: ('A' for Active; 'I' for Inactive)
REMARK    1  A    between atoms: C_4  and  O_7
REMARK    2  A    between atoms: O_7  and  C_8
REMARK    3  A    between atoms: C_8  and  C_9
REMARK    4  A    between atoms: C_10  and  C_11
REMARK    5  A    between atoms: C_13  and  C_16
REMARK    6  A    between atoms: C_25  and  C_29
REMARK    7  A    between atoms: C_29  and  N_30
REMARK                            x       y       z     vdW  Elec       q    Type
REMARK                         _______ _______ _______ _____ _____    ______ ____
ROOT
ATOM      1  C   UNL     1      11.005  -2.940  -0.114  0.00  0.00    +0.070 A 
ATOM      2  C   UNL     1      12.085  -3.264   0.650  0.00  0.00    +0.010 A 
ATOM      3  C   UNL     1      13.123  -2.371   0.341  0.00  0.00    +0.097 A 
ATOM      4  N   UNL     1      12.682  -1.536  -0.580  0.00  0.00    -0.173 NA
ATOM      5  H   UNL     1      10.792  -1.427  -1.536  0.00  0.00    +0.189 HD
ATOM      6  N   UNL     1      11.358  -1.874  -0.888  0.00  0.00    -0.276 N 
ATOM      7  C   UNL     1      14.315  -2.704   1.163  0.00  0.00    +0.006 A 
ATOM      8  C   UNL     1      15.581  -2.119   1.223  0.00  0.00    +0.011 A 
ATOM      9  C   UNL     1      16.532  -2.622   2.085  0.00  0.00    +0.006 A 
ATOM     10  C   UNL     1      16.237  -3.705   2.893  0.00  0.00    -0.026 A 
ATOM     11  C   UNL     1      14.985  -4.290   2.839  0.00  0.00    +0.010 A 
ATOM     12  C   UNL     1      14.027  -3.793   1.979  0.00  0.00    -0.033 A 
ATOM     13  C   UNL     1      12.603  -4.212   1.704  0.00  0.00    +0.075 C 
ENDROOT
BRANCH   1  16
ATOM     14  C   UNL     1       7.322  -3.563  -0.091  0.00  0.00    +0.063 A 
ATOM     15  C   UNL     1       8.513  -2.890  -0.093  0.00  0.00    +0.034 A 
ATOM     16  C   UNL     1       9.692  -3.622  -0.110  0.00  0.00    +0.008 A 
ATOM     17  C   UNL     1       9.614  -4.991  -0.123  0.00  0.00    +0.056 A 
ATOM     18  S   UNL     1       7.851  -5.268  -0.105  0.00  0.00    -0.088 S 
BRANCH  14  20
ATOM     19  C   UNL     1       4.900  -2.603  -0.061  0.00  0.00    -0.056 C 
ATOM     20  C   UNL     1       5.991  -3.035  -0.074  0.00  0.00    -0.056 C 
BRANCH  19  21
ATOM     21  C   UNL     1       3.531  -2.060  -0.044  0.00  0.00    +0.318 C 
BRANCH  21  22
ATOM     22  O   UNL     1       3.586  -0.632  -0.037  0.00  0.00    -0.480 OA
BRANCH  22  26
ATOM     23  C   UNL     1      -0.017   1.378   0.010  0.00  0.00    +0.000 A 
ATOM     24  C   UNL     1       1.170   2.088   0.002  0.00  0.00    +0.004 A 
ATOM     25  C   UNL     1       2.377   1.417  -0.013  0.00  0.00    +0.046 A 
ATOM     26  C   UNL     1       2.399   0.030  -0.021  0.00  0.00    +0.122 A 
ATOM     27  C   UNL     1       1.207  -0.680  -0.013  0.00  0.00    +0.046 A 
ATOM     28  C   UNL     1       0.002  -0.004   0.002  0.00  0.00    +0.004 A 
ENDBRANCH  22  26
ENDBRANCH  21  22
ENDBRANCH  19  21
ENDBRANCH  14  20
ENDBRANCH   1  16
BRANCH  10  29
ATOM     29  C   UNL     1      17.282  -4.250   3.833  0.00  0.00    +0.180 C 
BRANCH  29  30
ATOM     30  N   UNL     1      17.178  -3.569   5.126  0.00  0.00    -0.248 N 
ATOM     31  C   UNL     1      17.026  -4.146   6.330  0.00  0.00    +0.219 A 
ATOM     32  N   UNL     1      16.976  -3.199   7.231  0.00  0.00    -0.223 NA
ATOM     33  C   UNL     1      17.091  -2.009   6.643  0.00  0.00    +0.245 A 
ATOM     34  N   UNL     1      17.223  -2.184   5.354  0.00  0.00    -0.158 NA
ENDBRANCH  29  30
ENDBRANCH  10  29
TORSDOF 7
