REMARK  Name = CHEMBL243908
REMARK  7 active torsions:
REMARK  status: ('A' for Active; 'I' for Inactive)
REMARK    1  A    between atoms: C_1  and  O_2
REMARK    2  A    between atoms: O_2  and  C_3
REMARK    3  A    between atoms: C_3  and  N_5
REMARK    4  A    between atoms: C_11  and  O_16
REMARK    5  A    between atoms: O_16  and  C_17
REMARK    6  A    between atoms: C_20  and  N_23
REMARK    7  A    between atoms: N_26  and  C_27
REMARK                            x       y       z     vdW  Elec       q    Type
REMARK                         _______ _______ _______ _____ _____    ______ ____
ROOT
ATOM      1  C   UNL     1       4.319  -4.841   7.248  0.00  0.00    +0.129 A 
ATOM      2  C   UNL     1       3.888  -6.017   6.650  0.00  0.00    +0.048 A 
ATOM      3  C   UNL     1       4.075  -7.226   7.289  0.00  0.00    +0.027 A 
ATOM      4  C   UNL     1       4.695  -7.266   8.531  0.00  0.00    +0.035 A 
ATOM      5  C   UNL     1       5.126  -6.090   9.130  0.00  0.00    +0.027 A 
ATOM      6  C   UNL     1       4.944  -4.882   8.487  0.00  0.00    +0.048 A 
ENDROOT
BRANCH   4   7
ATOM      7  N   UNL     1       4.884  -8.494   9.180  0.00  0.00    -0.269 N 
ATOM      8  C   UNL     1       5.146  -9.603   8.461  0.00  0.00    +0.308 C 
ATOM      9  O   UNL     1       5.317  -9.523   7.260  0.00  0.00    -0.252 OA
ATOM     10  N   UNL     1       5.218 -10.802   9.074  0.00  0.00    -0.269 N 
ATOM     11  H   UNL     1       4.827  -8.545  10.147  0.00  0.00    +0.156 HD
ATOM     12  H   UNL     1       5.004 -10.878  10.017  0.00  0.00    +0.156 HD
BRANCH  10  13
ATOM     13  C   UNL     1       5.603 -11.935   8.349  0.00  0.00    +0.036 A 
ATOM     14  C   UNL     1       6.547 -11.827   7.337  0.00  0.00    +0.023 A 
ATOM     15  C   UNL     1       6.925 -12.948   6.623  0.00  0.00    +0.003 A 
ATOM     16  C   UNL     1       6.363 -14.177   6.915  0.00  0.00    +0.015 A 
ATOM     17  C   UNL     1       5.422 -14.289   7.923  0.00  0.00    +0.020 A 
ATOM     18  C   UNL     1       5.044 -13.172   8.645  0.00  0.00    +0.038 A 
ATOM     19 BR   UNL     1       4.656 -15.972   8.318  0.00  0.00    -0.050 Br
ENDBRANCH  10  13
ENDBRANCH   4   7
BRANCH   1  20
ATOM     20  O   UNL     1       4.135  -3.651   6.619  0.00  0.00    -0.456 OA
BRANCH  20  27
ATOM     21  N   UNL     1       8.113   1.544   9.520  0.00  0.00    -0.109 NA
ATOM     22  C   UNL     1       7.178   0.714   9.074  0.00  0.00    +0.201 A 
ATOM     23  N   UNL     1       7.407  -0.429   8.371  0.00  0.00    -0.326 N 
ATOM     24  H   UNL     1       8.277  -0.772   8.114  0.00  0.00    +0.169 HD
ATOM     25  C   UNL     1       6.181  -1.020   8.086  0.00  0.00    +0.069 A 
ATOM     26  C   UNL     1       5.824  -2.177   7.409  0.00  0.00    +0.074 A 
ATOM     27  C   UNL     1       4.487  -2.517   7.282  0.00  0.00    +0.131 A 
ATOM     28  C   UNL     1       3.504  -1.702   7.829  0.00  0.00    +0.048 A 
ATOM     29  C   UNL     1       3.854  -0.549   8.504  0.00  0.00    +0.031 A 
ATOM     30  C   UNL     1       5.191  -0.203   8.636  0.00  0.00    +0.066 A 
ATOM     31  N   UNL     1       5.838   0.867   9.251  0.00  0.00    -0.326 N 
ATOM     32  H   UNL     1       5.407   1.597   9.722  0.00  0.00    +0.169 HD
BRANCH  21  33
ATOM     33  C   UNL     1       9.393   1.344   9.195  0.00  0.00    +0.427 C 
ATOM     34  O   UNL     1       9.715   0.351   8.567  0.00  0.00    -0.224 OA
BRANCH  33  36
ATOM     35  C   UNL     1      11.680   1.967   9.180  0.00  0.00    +0.282 C 
ATOM     36  O   UNL     1      10.331   2.244   9.562  0.00  0.00    -0.452 OA
ENDBRANCH  33  36
ENDBRANCH  21  33
ENDBRANCH  20  27
ENDBRANCH   1  20
TORSDOF 6
