REMARK  Name = CHEMBL272693
REMARK  8 active torsions:
REMARK  status: ('A' for Active; 'I' for Inactive)
REMARK    1  A    between atoms: C_1  and  O_2
REMARK    2  A    between atoms: O_2  and  C_3
REMARK    3  A    between atoms: C_6  and  O_15
REMARK    4  A    between atoms: C_12  and  O_13
REMARK    5  A    between atoms: O_13  and  C_14
REMARK    6  A    between atoms: O_15  and  C_16
REMARK    7  A    between atoms: C_25  and  C_26
REMARK    8  A    between atoms: N_28  and  C_29
REMARK                            x       y       z     vdW  Elec       q    Type
REMARK                         _______ _______ _______ _____ _____    ______ ____
ROOT
ATOM      1  C   UNL     1       2.906   2.342   5.163  0.00  0.00    +0.129 A 
ATOM      2  C   UNL     1       3.570   1.700   6.213  0.00  0.00    +0.047 A 
ATOM      3  C   UNL     1       4.129   2.415   7.228  0.00  0.00    +0.013 A 
ATOM      4  C   UNL     1       4.041   3.814   7.224  0.00  0.00    -0.006 A 
ATOM      5  C   UNL     1       3.370   4.469   6.162  0.00  0.00    -0.014 A 
ATOM      6  C   UNL     1       2.808   3.704   5.127  0.00  0.00    +0.054 A 
ATOM      7  C   UNL     1       3.284   5.872   6.158  0.00  0.00    +0.008 A 
ATOM      8  C   UNL     1       3.842   6.595   7.169  0.00  0.00    +0.001 A 
ATOM      9  C   UNL     1       4.504   5.971   8.219  0.00  0.00    +0.014 A 
ATOM     10  C   UNL     1       4.613   4.589   8.264  0.00  0.00    +0.045 A 
ENDROOT
BRANCH  10  11
ATOM     11  C   UNL     1       5.316   3.933   9.381  0.00  0.00    +0.249 C 
ATOM     12  O   UNL     1       5.502   2.731   9.361  0.00  0.00    -0.270 OA
ATOM     13  N   UNL     1       5.753   4.665  10.425  0.00  0.00    -0.281 N 
ATOM     14  H   UNL     1       5.662   5.630  10.412  0.00  0.00    +0.155 HD
BRANCH  13  15
ATOM     15  C   UNL     1       6.337   4.034  11.523  0.00  0.00    +0.037 A 
ATOM     16  C   UNL     1       7.125   2.896  11.359  0.00  0.00    +0.043 A 
ATOM     17  C   UNL     1       7.686   2.302  12.471  0.00  0.00    +0.112 A 
ATOM     18  N   UNL     1       7.483   2.798  13.677  0.00  0.00    -0.263 NA
ATOM     19  C   UNL     1       6.744   3.873  13.874  0.00  0.00    +0.112 A 
ATOM     20  C   UNL     1       6.153   4.529  12.814  0.00  0.00    +0.043 A 
ENDBRANCH  13  15
ENDBRANCH  10  11
BRANCH   1  21
ATOM     21  O   UNL     1       2.357   1.602   4.164  0.00  0.00    -0.455 OA
BRANCH  21  25
ATOM     22  C   UNL     1       0.338  -0.495   1.131  0.00  0.00    +0.162 A 
ATOM     23  C   UNL     1       1.020   0.196   2.091  0.00  0.00    +0.063 A 
ATOM     24  C   UNL     1       0.518   0.245   3.400  0.00  0.00    +0.044 A 
ATOM     25  C   UNL     1       1.196   0.950   4.420  0.00  0.00    +0.139 A 
ATOM     26  C   UNL     1       0.640   0.953   5.686  0.00  0.00    +0.064 A 
ATOM     27  C   UNL     1      -0.550   0.276   5.918  0.00  0.00    +0.086 A 
ATOM     28  N   UNL     1      -1.172  -0.377   4.964  0.00  0.00    -0.360 N 
ATOM     29  C   UNL     1      -0.691  -0.422   3.716  0.00  0.00    +0.054 A 
ATOM     30  C   UNL     1      -1.370  -1.124   2.706  0.00  0.00    +0.075 A 
ATOM     31  C   UNL     1      -0.862  -1.151   1.439  0.00  0.00    +0.163 A 
ATOM     32  H   UNL     1      -2.001  -0.837   5.168  0.00  0.00    +0.165 HD
BRANCH  22  34
ATOM     33  C   UNL     1       2.051   0.147  -0.388  0.00  0.00    +0.277 C 
ATOM     34  O   UNL     1       0.824  -0.542  -0.138  0.00  0.00    -0.491 OA
ENDBRANCH  22  34
BRANCH  31  35
ATOM     35  O   UNL     1      -1.526  -1.827   0.465  0.00  0.00    -0.491 OA
ATOM     36  C   UNL     1      -2.743  -2.475   0.840  0.00  0.00    +0.277 C 
ENDBRANCH  31  35
ENDBRANCH  21  25
ENDBRANCH   1  21
TORSDOF 6
