REMARK  Name = CHEMBL1086731
REMARK  9 active torsions:
REMARK  status: ('A' for Active; 'I' for Inactive)
REMARK    1  A    between atoms: C_1  and  C_2
REMARK    2  A    between atoms: C_5  and  N_25
REMARK    3  A    between atoms: C_7  and  N_8
REMARK    4  A    between atoms: C_20  and  N_24
REMARK    5  A    between atoms: C_26  and  C_28
REMARK    6  A    between atoms: C_31  and  C_33
REMARK    7  A    between atoms: C_33  and  C_34
REMARK    8  A    between atoms: C_33  and  C_35
REMARK    9  A    between atoms: C_33  and  C_36
REMARK                            x       y       z     vdW  Elec       q    Type
REMARK                         _______ _______ _______ _____ _____    ______ ____
ROOT
ATOM      1  C   UNL     1      -3.298   0.624   0.975  0.00  0.00    +0.045 C 
ATOM      2  C   UNL     1      -3.013  -0.837   1.210  0.00  0.00    -0.029 A 
ATOM      3  C   UNL     1      -3.732  -1.799   0.527  0.00  0.00    +0.007 A 
ATOM      4  C   UNL     1      -3.474  -3.139   0.740  0.00  0.00    +0.024 A 
ATOM      5  C   UNL     1      -2.490  -3.524   1.642  0.00  0.00    +0.035 A 
ATOM      6  C   UNL     1      -1.766  -2.561   2.330  0.00  0.00    +0.047 A 
ATOM      7  C   UNL     1      -2.024  -1.215   2.109  0.00  0.00    +0.038 A 
ENDROOT
BRANCH   7   8
ATOM      8  N   UNL     1      -1.293  -0.241   2.796  0.00  0.00    -0.284 N 
ATOM      9  C   UNL     1      -0.189  -0.603   3.540  0.00  0.00    +0.207 A 
ATOM     10  N   UNL     1       0.331  -1.804   3.579  0.00  0.00    -0.214 NA
ATOM     11  C   UNL     1       1.407  -1.811   4.410  0.00  0.00    +0.091 A 
ATOM     12  C   UNL     1       2.307  -2.804   4.805  0.00  0.00    +0.030 A 
ATOM     13  C   UNL     1       3.322  -2.497   5.683  0.00  0.00    +0.002 A 
ATOM     14  C   UNL     1       3.459  -1.208   6.178  0.00  0.00    +0.002 A 
ATOM     15  C   UNL     1       2.578  -0.216   5.797  0.00  0.00    +0.028 A 
ATOM     16  C   UNL     1       1.551  -0.508   4.914  0.00  0.00    +0.077 A 
ATOM     17  N   UNL     1       0.530   0.240   4.344  0.00  0.00    -0.264 N 
ATOM     18  C   UNL     1       0.283   1.596   4.553  0.00  0.00    +0.145 A 
ATOM     19  C   UNL     1       0.036   2.441   3.478  0.00  0.00    +0.090 A 
ATOM     20  C   UNL     1      -0.206   3.788   3.739  0.00  0.00    +0.121 A 
ATOM     21  N   UNL     1      -0.193   4.213   5.000  0.00  0.00    -0.221 NA
ATOM     22  C   UNL     1       0.046   3.379   5.992  0.00  0.00    +0.225 A 
ATOM     23  N   UNL     1       0.273   2.098   5.785  0.00  0.00    -0.218 NA
ATOM     24  H   UNL     1      -1.562   0.690   2.749  0.00  0.00    +0.155 HD
BRANCH  20  25
ATOM     25  N   UNL     1      -0.457   4.671   2.701  0.00  0.00    -0.343 N 
ATOM     26  H   UNL     1      -0.465   4.354   1.784  0.00  0.00    +0.144 HD
ATOM     27  H   UNL     1      -0.625   5.608   2.891  0.00  0.00    +0.144 HD
ENDBRANCH  20  25
ENDBRANCH   7   8
BRANCH   5  28
ATOM     28  N   UNL     1      -2.230  -4.881   1.858  0.00  0.00    -0.281 N 
ATOM     29  C   UNL     1      -2.369  -5.763   0.848  0.00  0.00    +0.255 C 
ATOM     30  O   UNL     1      -2.627  -5.367  -0.274  0.00  0.00    -0.269 OA
ATOM     31  H   UNL     1      -1.950  -5.188   2.735  0.00  0.00    +0.155 HD
BRANCH  29  32
ATOM     32  C   UNL     1      -2.210  -7.197   1.101  0.00  0.00    +0.074 A 
ATOM     33  C   UNL     1      -1.925  -7.849   2.291  0.00  0.00    +0.021 A 
ATOM     34  C   UNL     1      -1.836  -9.219   2.216  0.00  0.00    +0.012 A 
ATOM     35  C   UNL     1      -2.027  -9.826   1.018  0.00  0.00    -0.004 A 
ATOM     36  S   UNL     1      -2.339  -8.561  -0.041  0.00  0.00    -0.088 S 
BRANCH  35  37
ATOM     37  C   UNL     1      -1.975 -11.300   0.710  0.00  0.00    -0.006 C 
ATOM     38  C   UNL     1      -3.033 -12.032   1.540  0.00  0.00    +0.016 C 
ATOM     39  C   UNL     1      -2.253 -11.520  -0.778  0.00  0.00    +0.016 C 
ATOM     40  C   UNL     1      -0.588 -11.846   1.056  0.00  0.00    +0.016 C 
ENDBRANCH  35  37
ENDBRANCH  29  32
ENDBRANCH   5  28
TORSDOF 5
