REMARK  Name = CHEMBL215943
REMARK  8 active torsions:
REMARK  status: ('A' for Active; 'I' for Inactive)
REMARK    1  A    between atoms: C_1  and  C_2
REMARK    2  A    between atoms: C_5  and  C_27
REMARK    3  A    between atoms: C_7  and  C_8
REMARK    4  A    between atoms: N_18  and  C_19
REMARK    5  A    between atoms: C_19  and  C_20
REMARK    6  A    between atoms: C_20  and  N_21
REMARK    7  A    between atoms: N_29  and  C_30
REMARK    8  A    between atoms: C_34  and  C_36
REMARK                            x       y       z     vdW  Elec       q    Type
REMARK                         _______ _______ _______ _____ _____    ______ ____
ROOT
ATOM      1  C   UNL     1      -0.048   1.502   0.010  0.00  0.00    +0.044 C 
ATOM      2  C   UNL     1      -0.019  -0.004   0.002  0.00  0.00    -0.043 A 
ATOM      3  C   UNL     1      -0.018  -0.687  -1.200  0.00  0.00    +0.005 A 
ATOM      4  C   UNL     1       0.009  -2.067  -1.216  0.00  0.00    +0.013 A 
ATOM      5  C   UNL     1       0.033  -2.781  -0.016  0.00  0.00    +0.038 A 
ATOM      6  C   UNL     1       0.031  -2.097   1.198  0.00  0.00    +0.021 A 
ATOM      7  C   UNL     1       0.011  -0.706   1.206  0.00  0.00    -0.014 A 
ENDROOT
BRANCH   7   8
ATOM      8  C   UNL     1       0.016   0.030   2.495  0.00  0.00    -0.017 A 
ATOM      9  C   UNL     1       0.929   1.077   2.695  0.00  0.00    +0.010 A 
ATOM     10  C   UNL     1       0.955   1.768   3.865  0.00  0.00    +0.029 A 
ATOM     11  C   UNL     1       0.059   1.437   4.894  0.00  0.00    +0.076 A 
ATOM     12  C   UNL     1      -0.869   0.380   4.701  0.00  0.00    +0.019 A 
ATOM     13  C   UNL     1      -0.884  -0.317   3.486  0.00  0.00    +0.020 A 
ATOM     14  C   UNL     1      -1.756   0.069   5.749  0.00  0.00    +0.124 A 
ATOM     15  N   UNL     1      -1.687   0.772   6.860  0.00  0.00    -0.222 NA
ATOM     16  C   UNL     1      -0.803   1.757   7.007  0.00  0.00    +0.216 A 
ATOM     17  N   UNL     1       0.052   2.093   6.061  0.00  0.00    -0.215 NA
ATOM     18  N   UNL     1      -0.782   2.457   8.200  0.00  0.00    -0.315 N 
ATOM     19  H   UNL     1      -0.147   3.179   8.327  0.00  0.00    +0.149 HD
BRANCH  18  20
ATOM     20  C   UNL     1      -1.720   2.109   9.270  0.00  0.00    +0.086 C 
BRANCH  20  21
ATOM     21  C   UNL     1      -1.487   3.029  10.471  0.00  0.00    -0.060 C 
BRANCH  21  22
ATOM     22  N   UNL     1      -2.427   2.679  11.544  0.00  0.00    +0.384 N 
ATOM     23  C   UNL     1      -3.801   2.957  11.103  0.00  0.00    -0.050 C 
ATOM     24  C   UNL     1      -4.778   2.592  12.223  0.00  0.00    +0.141 C 
ATOM     25  O   UNL     1      -4.444   3.333  13.400  0.00  0.00    -0.383 OA
ATOM     26  C   UNL     1      -3.106   3.114  13.856  0.00  0.00    +0.141 C 
ATOM     27  C   UNL     1      -2.126   3.480  12.739  0.00  0.00    -0.050 C 
ATOM     28  H   UNL     1      -2.336   1.699  11.765  0.00  0.00    -0.082 HD
ENDBRANCH  21  22
ENDBRANCH  20  21
ENDBRANCH  18  20
ENDBRANCH   7   8
BRANCH   5  29
ATOM     29  C   UNL     1       0.060  -4.259  -0.034  0.00  0.00    +0.248 C 
ATOM     30  O   UNL     1       0.082  -4.879   1.012  0.00  0.00    -0.270 OA
ATOM     31  N   UNL     1       0.061  -4.919  -1.209  0.00  0.00    -0.281 N 
ATOM     32  H   UNL     1      -0.024  -4.428  -2.041  0.00  0.00    +0.155 HD
BRANCH  31  33
ATOM     33  C   UNL     1       0.185  -6.312  -1.228  0.00  0.00    +0.034 A 
ATOM     34  C   UNL     1       0.889  -6.934  -2.251  0.00  0.00    +0.023 A 
ATOM     35  C   UNL     1       1.010  -8.309  -2.268  0.00  0.00    +0.002 A 
ATOM     36  C   UNL     1       0.430  -9.068  -1.267  0.00  0.00    +0.012 A 
ATOM     37  C   UNL     1      -0.272  -8.452  -0.247  0.00  0.00    +0.057 A 
ATOM     38  C   UNL     1      -0.392  -7.076  -0.223  0.00  0.00    +0.035 A 
BRANCH  37  39
ATOM     39  C   UNL     1      -0.902  -9.282   0.841  0.00  0.00    +0.417 C 
ATOM     40  F   UNL     1      -0.643 -10.636   0.604  0.00  0.00    -0.166 F 
ATOM     41  F   UNL     1      -0.365  -8.914   2.079  0.00  0.00    -0.166 F 
ATOM     42  F   UNL     1      -2.285  -9.067   0.850  0.00  0.00    -0.166 F 
ENDBRANCH  37  39
ENDBRANCH  31  33
ENDBRANCH   5  29
TORSDOF 7
