REMARK  Name = CHEMBL524453
REMARK  10 active torsions:
REMARK  status: ('A' for Active; 'I' for Inactive)
REMARK    1  A    between atoms: C_1  and  N_2
REMARK    2  A    between atoms: N_2  and  C_3
REMARK    3  A    between atoms: C_6  and  N_9
REMARK    4  A    between atoms: N_9  and  C_10
REMARK    5  A    between atoms: C_10  and  C_25
REMARK    6  A    between atoms: C_15  and  C_21
REMARK    7  A    between atoms: C_21  and  O_23
REMARK    8  A    between atoms: O_23  and  C_24
REMARK    9  A    between atoms: C_31  and  C_33
REMARK   10  A    between atoms: C_33  and  N_34
REMARK                            x       y       z     vdW  Elec       q    Type
REMARK                         _______ _______ _______ _____ _____    ______ ____
ROOT
ATOM      1  C   UNL     1       0.045  -1.899   6.029  0.00  0.00    +0.051 C 
ATOM      2  C   UNL     1      -0.167  -2.526   7.254  0.00  0.00    +0.068 C 
ATOM      3  C   UNL     1      -0.427  -1.876   8.553  0.00  0.00    +0.010 A 
ATOM      4  C   UNL     1      -0.536  -0.546   8.955  0.00  0.00    +0.011 A 
ATOM      5  C   UNL     1      -0.788  -0.247  10.263  0.00  0.00    +0.016 A 
ATOM      6  C   UNL     1      -0.938  -1.274  11.204  0.00  0.00    +0.061 A 
ATOM      7  C   UNL     1      -0.830  -2.610  10.810  0.00  0.00    +0.039 A 
ATOM      8  C   UNL     1      -0.575  -2.917   9.485  0.00  0.00    +0.042 A 
ATOM      9  N   UNL     1      -0.418  -4.125   8.816  0.00  0.00    -0.281 N 
ATOM     10  C   UNL     1      -0.185  -3.923   7.509  0.00  0.00    +0.251 C 
ATOM     11  O   UNL     1      -0.013  -4.796   6.677  0.00  0.00    -0.270 OA
ATOM     12  H   UNL     1      -0.474  -4.998   9.236  0.00  0.00    +0.155 HD
ENDROOT
BRANCH   1  13
ATOM     13  C   UNL     1       0.188  -0.433   5.967  0.00  0.00    -0.003 A 
ATOM     14  C   UNL     1       1.121   0.218   6.779  0.00  0.00    +0.010 A 
ATOM     15  C   UNL     1       1.248   1.589   6.715  0.00  0.00    +0.001 A 
ATOM     16  C   UNL     1       0.455   2.322   5.849  0.00  0.00    +0.000 A 
ATOM     17  C   UNL     1      -0.471   1.685   5.042  0.00  0.00    +0.001 A 
ATOM     18  C   UNL     1      -0.606   0.313   5.091  0.00  0.00    +0.010 A 
ENDBRANCH   1  13
BRANCH   1  19
ATOM     19  N   UNL     1       0.122  -2.644   4.883  0.00  0.00    -0.313 N 
ATOM     20  H   UNL     1      -0.623  -3.206   4.619  0.00  0.00    +0.152 HD
BRANCH  19  24
ATOM     21  C   UNL     1       3.557  -2.494   2.527  0.00  0.00    +0.036 A 
ATOM     22  C   UNL     1       2.429  -3.162   2.069  0.00  0.00    +0.025 A 
ATOM     23  C   UNL     1       1.292  -3.212   2.849  0.00  0.00    +0.025 A 
ATOM     24  C   UNL     1       1.275  -2.594   4.093  0.00  0.00    +0.031 A 
ATOM     25  C   UNL     1       2.403  -1.925   4.551  0.00  0.00    +0.025 A 
ATOM     26  C   UNL     1       3.542  -1.880   3.773  0.00  0.00    +0.025 A 
BRANCH  21  28
ATOM     27  C   UNL     1       5.463  -3.669   1.456  0.00  0.00    +0.138 C 
ATOM     28  N   UNL     1       4.711  -2.443   1.735  0.00  0.00    -0.273 N 
ATOM     29  C   UNL     1       5.130  -1.266   1.230  0.00  0.00    +0.239 C 
ATOM     30  O   UNL     1       4.561  -0.238   1.533  0.00  0.00    -0.273 OA
BRANCH  29  31
ATOM     31  C   UNL     1       6.307  -1.226   0.288  0.00  0.00    +0.218 C 
BRANCH  31  32
ATOM     32  N   UNL     1       6.561   0.159  -0.116  0.00  0.00    -0.330 N 
ATOM     33  C   UNL     1       6.017   0.803  -1.194  0.00  0.00    +0.105 A 
ATOM     34  C   UNL     1       6.518   2.053  -1.195  0.00  0.00    +0.101 A 
ATOM     35  N   UNL     1       7.346   2.169  -0.146  0.00  0.00    -0.352 N 
ATOM     36  C   UNL     1       7.373   1.040   0.507  0.00  0.00    +0.174 A 
ATOM     37  H   UNL     1       7.843   2.967   0.091  0.00  0.00    +0.166 HD
ENDBRANCH  31  32
ENDBRANCH  29  31
ENDBRANCH  21  28
ENDBRANCH  19  24
ENDBRANCH   1  19
BRANCH   6  38
ATOM     38  C   UNL     1      -1.209  -0.944  12.614  0.00  0.00    +0.339 C 
ATOM     39  O   UNL     1      -1.339  -1.833  13.432  0.00  0.00    -0.245 OA
BRANCH  38  40
ATOM     40  O   UNL     1      -1.313   0.344  12.997  0.00  0.00    -0.464 OA
ATOM     41  C   UNL     1      -1.577   0.591  14.379  0.00  0.00    +0.280 C 
ENDBRANCH  38  40
ENDBRANCH   6  38
TORSDOF 8
