REMARK  Name = CHEMBL387971
REMARK  11 active torsions:
REMARK  status: ('A' for Active; 'I' for Inactive)
REMARK    1  A    between atoms: C_1  and  N_2
REMARK    2  A    between atoms: N_5  and  C_8
REMARK    3  A    between atoms: C_8  and  C_9
REMARK    4  A    between atoms: C_22  and  C_23
REMARK    5  A    between atoms: C_25  and  C_28
REMARK    6  A    between atoms: C_29  and  C_30
REMARK    7  A    between atoms: C_30  and  O_31
REMARK    8  A    between atoms: O_31  and  C_32
REMARK    9  A    between atoms: C_32  and  C_33
REMARK   10  A    between atoms: C_33  and  O_34
REMARK   11  A    between atoms: O_34  and  C_35
REMARK                            x       y       z     vdW  Elec       q    Type
REMARK                         _______ _______ _______ _____ _____    ______ ____
ROOT
ATOM      1  C   UNL     1      -0.094  -4.478   2.524  0.00  0.00    -0.033 A 
ATOM      2  C   UNL     1       1.262  -4.705   2.675  0.00  0.00    +0.005 A 
ATOM      3  C   UNL     1       1.768  -5.135   3.888  0.00  0.00    +0.011 A 
ATOM      4  C   UNL     1       0.913  -5.343   4.965  0.00  0.00    +0.014 A 
ATOM      5  C   UNL     1      -0.464  -5.113   4.812  0.00  0.00    +0.032 A 
ATOM      6  C   UNL     1      -0.957  -4.674   3.584  0.00  0.00    +0.017 A 
ATOM      7  C   UNL     1      -1.142  -5.407   6.095  0.00  0.00    +0.198 C 
ATOM      8  O   UNL     1      -2.335  -5.313   6.314  0.00  0.00    -0.286 OA
ATOM      9  C   UNL     1      -0.117  -5.831   7.054  0.00  0.00    +0.075 A 
ATOM     10  C   UNL     1       1.171  -5.794   6.355  0.00  0.00    +0.105 A 
ATOM     11  N   UNL     1       2.089  -6.173   7.208  0.00  0.00    -0.173 NA
ATOM     12  H   UNL     1       1.963  -6.763   9.233  0.00  0.00    +0.189 HD
ATOM     13  N   UNL     1       1.493  -6.463   8.440  0.00  0.00    -0.276 N 
ATOM     14  C   UNL     1       0.149  -6.255   8.351  0.00  0.00    +0.078 A 
ENDROOT
BRANCH  14  15
ATOM     15  C   UNL     1      -0.839  -6.445   9.428  0.00  0.00    +0.009 A 
ATOM     16  C   UNL     1      -0.597  -5.970  10.716  0.00  0.00    +0.034 A 
ATOM     17  C   UNL     1      -1.580  -6.201  11.637  0.00  0.00    +0.063 A 
ATOM     18  S   UNL     1      -2.808  -7.070  10.682  0.00  0.00    -0.088 S 
ATOM     19  C   UNL     1      -2.033  -7.094   9.192  0.00  0.00    +0.056 A 
BRANCH  17  20
ATOM     20  C   UNL     1      -1.615  -5.836  13.021  0.00  0.00    -0.057 C 
ATOM     21  C   UNL     1      -1.643  -5.537  14.156  0.00  0.00    -0.068 C 
BRANCH  21  22
ATOM     22  C   UNL     1      -1.679  -5.162  15.579  0.00  0.00    +0.248 C 
BRANCH  22  23
ATOM     23  O   UNL     1      -2.906  -5.607  16.159  0.00  0.00    -0.365 OA
BRANCH  23  24
ATOM     24  C   UNL     1      -3.042  -5.292  17.546  0.00  0.00    +0.189 C 
BRANCH  24  25
ATOM     25  C   UNL     1      -4.386  -5.813  18.058  0.00  0.00    +0.187 C 
BRANCH  25  26
ATOM     26  O   UNL     1      -4.400  -7.241  17.992  0.00  0.00    -0.381 OA
ATOM     27  C   UNL     1      -5.617  -7.832  18.450  0.00  0.00    +0.194 C 
ENDBRANCH  25  26
ENDBRANCH  24  25
ENDBRANCH  23  24
ENDBRANCH  22  23
ENDBRANCH  21  22
ENDBRANCH  17  20
ENDBRANCH  14  15
BRANCH   1  28
ATOM     28  C   UNL     1      -0.632  -4.009   1.196  0.00  0.00    +0.119 C 
BRANCH  28  33
ATOM     29  C   UNL     1      -0.018   1.465   0.010  0.00  0.00    -0.096 C 
ATOM     30  N   UNL     1       0.002  -0.004   0.002  0.00  0.00    +0.379 N 
ATOM     31  C   UNL     1      -1.376  -0.512   0.011  0.00  0.00    -0.064 C 
ATOM     32  C   UNL     1      -1.356  -2.042  -0.017  0.00  0.00    +0.066 C 
ATOM     33  N   UNL     1      -0.624  -2.541   1.156  0.00  0.00    -0.302 NA
ATOM     34  C   UNL     1       0.750  -2.020   1.175  0.00  0.00    +0.066 C 
ATOM     35  C   UNL     1       0.713  -0.490   1.192  0.00  0.00    -0.064 C 
ATOM     36  H   UNL     1       0.475  -0.329  -0.828  0.00  0.00    -0.082 HD
ENDBRANCH  28  33
ENDBRANCH   1  28
TORSDOF 9
