REMARK  Name = CHEMBL406404
REMARK  8 active torsions:
REMARK  status: ('A' for Active; 'I' for Inactive)
REMARK    1  A    between atoms: C_1  and  C_2
REMARK    2  A    between atoms: C_6  and  N_8
REMARK    3  A    between atoms: N_11  and  C_12
REMARK    4  A    between atoms: C_15  and  C_18
REMARK    5  A    between atoms: C_21  and  O_28
REMARK    6  A    between atoms: O_28  and  C_29
REMARK    7  A    between atoms: C_29  and  C_30
REMARK    8  A    between atoms: C_30  and  N_31
REMARK                            x       y       z     vdW  Elec       q    Type
REMARK                         _______ _______ _______ _____ _____    ______ ____
ROOT
ATOM      1  C   UNL     1       0.587   0.060   9.526  0.00  0.00    -0.003 A 
ATOM      2  C   UNL     1       1.185   1.298   9.729  0.00  0.00    +0.013 A 
ATOM      3  C   UNL     1       1.063   1.940  10.949  0.00  0.00    +0.050 A 
ATOM      4  C   UNL     1       0.346   1.361  11.982  0.00  0.00    +0.166 A 
ATOM      5  C   UNL     1      -0.263   0.120  11.802  0.00  0.00    +0.211 A 
ATOM      6  C   UNL     1      -0.149  -0.533  10.568  0.00  0.00    +0.074 A 
ATOM      7  C   UNL     1      -0.893  -1.793  10.692  0.00  0.00    +0.167 A 
ATOM      8  N   UNL     1      -1.387  -1.834  11.899  0.00  0.00    -0.062 NA
ATOM      9  O   UNL     1      -1.006  -0.670  12.606  0.00  0.00    -0.349 OA
ATOM     10  N   UNL     1      -1.044  -2.761   9.708  0.00  0.00    -0.340 N 
ATOM     11  H   UNL     1      -0.547  -2.690   8.878  0.00  0.00    +0.144 HD
ATOM     12  H   UNL     1      -1.646  -3.508   9.851  0.00  0.00    +0.144 HD
ENDROOT
BRANCH   1  16
ATOM     13  C   UNL     1       0.962  -1.911   5.778  0.00  0.00    +0.035 A 
ATOM     14  C   UNL     1       2.100  -1.551   6.489  0.00  0.00    +0.024 A 
ATOM     15  C   UNL     1       1.982  -0.912   7.705  0.00  0.00    +0.010 A 
ATOM     16  C   UNL     1       0.717  -0.626   8.220  0.00  0.00    -0.017 A 
ATOM     17  C   UNL     1      -0.424  -0.988   7.504  0.00  0.00    +0.010 A 
ATOM     18  C   UNL     1      -0.299  -1.623   6.287  0.00  0.00    +0.024 A 
BRANCH  13  22
ATOM     19  N   UNL     1       2.293  -3.949   3.109  0.00  0.00    -0.267 N 
ATOM     20  C   UNL     1       2.112  -3.407   4.330  0.00  0.00    +0.308 C 
ATOM     21  O   UNL     1       2.874  -3.683   5.236  0.00  0.00    -0.252 OA
ATOM     22  N   UNL     1       1.086  -2.560   4.545  0.00  0.00    -0.269 N 
ATOM     23  H   UNL     1       1.726  -3.679   2.369  0.00  0.00    +0.156 HD
ATOM     24  H   UNL     1       0.433  -2.401   3.846  0.00  0.00    +0.156 HD
BRANCH  19  30
ATOM     25  C   UNL     1       6.755  -5.690   4.222  0.00  0.00    +0.044 C 
ATOM     26  C   UNL     1       5.473  -5.769   3.433  0.00  0.00    -0.049 A 
ATOM     27  C   UNL     1       5.292  -6.782   2.510  0.00  0.00    +0.006 A 
ATOM     28  C   UNL     1       4.118  -6.859   1.784  0.00  0.00    +0.040 A 
ATOM     29  C   UNL     1       3.120  -5.920   1.980  0.00  0.00    +0.145 A 
ATOM     30  C   UNL     1       3.300  -4.901   2.908  0.00  0.00    +0.070 A 
ATOM     31  C   UNL     1       4.479  -4.832   3.638  0.00  0.00    +0.029 A 
ATOM     32  F   UNL     1       1.973  -5.995   1.270  0.00  0.00    -0.204 F 
ENDBRANCH  19  30
ENDBRANCH  13  22
ENDBRANCH   1  16
BRANCH   4  33
ATOM     33  O   UNL     1       0.236   2.004  13.175  0.00  0.00    -0.490 OA
BRANCH  33  34
ATOM     34  C   UNL     1       0.885   3.272  13.291  0.00  0.00    +0.211 C 
BRANCH  34  35
ATOM     35  C   UNL     1       0.652   3.837  14.694  0.00  0.00    -0.037 C 
BRANCH  35  36
ATOM     36  N   UNL     1       1.274   2.953  15.688  0.00  0.00    +0.385 N 
ATOM     37  C   UNL     1       0.913   3.404  17.039  0.00  0.00    -0.050 C 
ATOM     38  C   UNL     1       1.561   2.481  18.073  0.00  0.00    +0.141 C 
ATOM     39  O   UNL     1       2.979   2.478  17.881  0.00  0.00    -0.383 OA
ATOM     40  C   UNL     1       3.379   2.068  16.571  0.00  0.00    +0.141 C 
ATOM     41  C   UNL     1       2.735   2.991  15.534  0.00  0.00    -0.050 C 
ATOM     42  H   UNL     1       0.946   2.008  15.550  0.00  0.00    -0.081 HD
ENDBRANCH  35  36
ENDBRANCH  34  35
ENDBRANCH  33  34
ENDBRANCH   4  33
TORSDOF 7
