REMARK  Name = CHEMBL565990
REMARK  10 active torsions:
REMARK  status: ('A' for Active; 'I' for Inactive)
REMARK    1  A    between atoms: C_1  and  C_2
REMARK    2  A    between atoms: C_2  and  N_3
REMARK    3  A    between atoms: C_5  and  C_8
REMARK    4  A    between atoms: C_8  and  C_10
REMARK    5  A    between atoms: C_15  and  O_19
REMARK    6  A    between atoms: O_19  and  C_20
REMARK    7  A    between atoms: C_23  and  N_27
REMARK    8  A    between atoms: C_28  and  C_30
REMARK    9  A    between atoms: C_30  and  C_31
REMARK   10  A    between atoms: N_33  and  C_34
REMARK                            x       y       z     vdW  Elec       q    Type
REMARK                         _______ _______ _______ _____ _____    ______ ____
ROOT
ATOM      1  C   UNL     1       8.043  -3.373  -6.507  0.00  0.00    +0.164 A 
ATOM      2  C   UNL     1       8.086  -3.666  -7.862  0.00  0.00    +0.051 A 
ATOM      3  C   UNL     1       9.284  -4.007  -8.458  0.00  0.00    +0.027 A 
ATOM      4  C   UNL     1      10.448  -4.056  -7.701  0.00  0.00    +0.036 A 
ATOM      5  C   UNL     1      10.406  -3.763  -6.345  0.00  0.00    +0.065 A 
ATOM      6  C   UNL     1       9.207  -3.416  -5.749  0.00  0.00    +0.167 A 
ATOM      7  F   UNL     1       9.167  -3.125  -4.431  0.00  0.00    -0.202 F 
ENDROOT
BRANCH   4   8
ATOM      8  N   UNL     1      11.663  -4.403  -8.306  0.00  0.00    -0.285 N 
ATOM      9  C   UNL     1      12.825  -3.966  -7.782  0.00  0.00    +0.226 C 
ATOM     10  O   UNL     1      12.816  -3.185  -6.854  0.00  0.00    -0.275 OA
ATOM     11  H   UNL     1      11.667  -4.958  -9.102  0.00  0.00    +0.155 HD
BRANCH   9  12
ATOM     12  C   UNL     1      14.135  -4.448  -8.349  0.00  0.00    +0.192 C 
BRANCH  12  13
ATOM     13  C   UNL     1      15.274  -3.815  -7.592  0.00  0.00    +0.226 C 
ATOM     14  O   UNL     1      15.044  -3.047  -6.681  0.00  0.00    -0.275 OA
ATOM     15  N   UNL     1      16.548  -4.101  -7.926  0.00  0.00    -0.285 N 
ATOM     16  H   UNL     1      16.733  -4.652  -8.703  0.00  0.00    +0.155 HD
BRANCH  15  17
ATOM     17  C   UNL     1      17.603  -3.604  -7.153  0.00  0.00    +0.033 A 
ATOM     18  C   UNL     1      18.797  -3.236  -7.760  0.00  0.00    +0.023 A 
ATOM     19  C   UNL     1      19.836  -2.746  -6.994  0.00  0.00    +0.002 A 
ATOM     20  C   UNL     1      19.689  -2.622  -5.624  0.00  0.00    +0.000 A 
ATOM     21  C   UNL     1      18.502  -2.988  -5.017  0.00  0.00    +0.002 A 
ATOM     22  C   UNL     1      17.456  -3.473  -5.779  0.00  0.00    +0.023 A 
ENDBRANCH  15  17
ENDBRANCH  12  13
ENDBRANCH   9  12
ENDBRANCH   4   8
BRANCH   1  23
ATOM     23  O   UNL     1       6.863  -3.037  -5.921  0.00  0.00    -0.452 OA
BRANCH  23  29
ATOM     24  C   UNL     1       2.862  -0.730  -4.395  0.00  0.00    +0.064 A 
ATOM     25  C   UNL     1       3.654   0.304  -4.792  0.00  0.00    +0.048 A 
ATOM     26  C   UNL     1       4.934   0.046  -5.311  0.00  0.00    +0.082 A 
ATOM     27  C   UNL     1       5.298  -1.317  -5.376  0.00  0.00    +0.080 A 
ATOM     28  S   UNL     1       3.880  -2.159  -4.721  0.00  0.00    -0.080 S 
ATOM     29  C   UNL     1       6.530  -1.722  -5.866  0.00  0.00    +0.146 A 
ATOM     30  C   UNL     1       7.414  -0.739  -6.298  0.00  0.00    +0.067 A 
ATOM     31  C   UNL     1       7.017   0.587  -6.217  0.00  0.00    +0.115 A 
ATOM     32  N   UNL     1       5.849   0.943  -5.751  0.00  0.00    -0.254 NA
BRANCH  24  33
ATOM     33  C   UNL     1       1.504  -0.681  -3.830  0.00  0.00    +0.219 C 
ATOM     34  O   UNL     1       0.949   0.391  -3.672  0.00  0.00    -0.284 OA
BRANCH  33  37
ATOM     35  N   UNL     1      -0.675  -3.351  -2.733  0.00  0.00    -0.336 N 
ATOM     36  C   UNL     1      -0.437  -2.032  -2.924  0.00  0.00    +0.118 A 
ATOM     37  C   UNL     1       0.817  -1.929  -3.456  0.00  0.00    +0.129 A 
ATOM     38  N   UNL     1       1.313  -3.186  -3.577  0.00  0.00    -0.232 NA
ATOM     39  C   UNL     1       0.426  -4.033  -3.142  0.00  0.00    +0.200 A 
BRANCH  35  41
ATOM     40  C   UNL     1      -1.771  -4.042  -0.659  0.00  0.00    +0.027 C 
ATOM     41  C   UNL     1      -1.899  -3.936  -2.180  0.00  0.00    +0.119 C 
ENDBRANCH  35  41
ENDBRANCH  33  37
ENDBRANCH  24  33
ENDBRANCH  23  29
ENDBRANCH   1  23
TORSDOF 9
