REMARK  Name = CHEMBL370493
REMARK  6 active torsions:
REMARK  status: ('A' for Active; 'I' for Inactive)
REMARK    1  A    between atoms: C_1  and  C_2
REMARK    2  A    between atoms: C_2  and  C_36
REMARK    3  A    between atoms: C_3  and  C_33
REMARK    4  A    between atoms: C_3  and  O_35
REMARK    5  A    between atoms: C_5  and  N_8
REMARK    6  A    between atoms: C_33  and  O_34
REMARK                            x       y       z     vdW  Elec       q    Type
REMARK                         _______ _______ _______ _____ _____    ______ ____
ROOT
ATOM      1  N   UNL     1       2.784  -1.615   1.621  0.00  0.00    -0.311 N 
ATOM      2  C   UNL     1       2.221  -2.759   2.153  0.00  0.00    +0.052 A 
ATOM      3  C   UNL     1       0.957  -3.328   2.029  0.00  0.00    +0.026 A 
ATOM      4  C   UNL     1       0.662  -4.503   2.686  0.00  0.00    +0.002 A 
ATOM      5  C   UNL     1       1.616  -5.128   3.476  0.00  0.00    +0.001 A 
ATOM      6  C   UNL     1       2.873  -4.580   3.612  0.00  0.00    +0.010 A 
ATOM      7  C   UNL     1       3.186  -3.393   2.952  0.00  0.00    +0.008 A 
ATOM      8  C   UNL     1       4.398  -2.561   2.882  0.00  0.00    +0.022 A 
ATOM      9  C   UNL     1       4.095  -1.485   2.047  0.00  0.00    +0.077 A 
ATOM     10  C   UNL     1       5.072  -0.513   1.784  0.00  0.00    +0.072 A 
ATOM     11  C   UNL     1       6.345  -0.634   2.361  0.00  0.00    +0.015 A 
ATOM     12  C   UNL     1       7.125   0.528   1.894  0.00  0.00    +0.008 A 
ATOM     13  C   UNL     1       8.430   0.958   2.118  0.00  0.00    +0.010 A 
ATOM     14  C   UNL     1       8.880   2.118   1.524  0.00  0.00    +0.001 A 
ATOM     15  C   UNL     1       8.038   2.856   0.706  0.00  0.00    +0.002 A 
ATOM     16  C   UNL     1       6.744   2.442   0.477  0.00  0.00    +0.026 A 
ATOM     17  C   UNL     1       6.271   1.273   1.067  0.00  0.00    +0.048 A 
ATOM     18  N   UNL     1       5.047   0.632   1.014  0.00  0.00    -0.352 N 
ATOM     19  H   UNL     1       4.280   0.943   0.508  0.00  0.00    +0.166 HD
ATOM     20  C   UNL     1       6.643  -1.709   3.190  0.00  0.00    -0.008 A 
ATOM     21  C   UNL     1       5.680  -2.675   3.465  0.00  0.00    +0.052 A 
ATOM     22  C   UNL     1       6.273  -3.679   4.361  0.00  0.00    +0.245 C 
ATOM     23  O   UNL     1       5.694  -4.663   4.780  0.00  0.00    -0.270 OA
ATOM     24  N   UNL     1       7.545  -3.356   4.651  0.00  0.00    -0.307 N 
ATOM     25  C   UNL     1       7.885  -2.116   3.945  0.00  0.00    +0.141 C 
ATOM     26  H   UNL     1       8.142  -3.864   5.222  0.00  0.00    +0.149 HD
ENDROOT
BRANCH   1  31
ATOM     27  C   UNL     1      -0.019   1.526   0.010  0.00  0.00    +0.044 C 
ATOM     28  C   UNL     1       0.002  -0.004   0.002  0.00  0.00    +0.097 C 
ATOM     29  C   UNL     1       0.737  -0.511  -1.254  0.00  0.00    +0.121 C 
ATOM     30  C   UNL     1       1.961  -1.276  -0.694  0.00  0.00    +0.094 C 
ATOM     31  C   UNL     1       2.095  -0.678   0.730  0.00  0.00    +0.223 C 
ATOM     32  O   UNL     1       0.725  -0.489   1.146  0.00  0.00    -0.348 OA
ATOM     33  C   UNL     1      -1.429  -0.544   0.024  0.00  0.00    +0.044 C 
BRANCH  29  34
ATOM     34  O   UNL     1       1.162   0.588  -2.063  0.00  0.00    -0.383 OA
ATOM     35  H   UNL     1       1.631   0.326  -2.867  0.00  0.00    +0.210 HD
ENDBRANCH  29  34
BRANCH  29  36
ATOM     36  C   UNL     1      -0.162  -1.454  -2.057  0.00  0.00    +0.193 C 
BRANCH  36  37
ATOM     37  O   UNL     1       0.578  -2.001  -3.150  0.00  0.00    -0.392 OA
ATOM     38  H   UNL     1       0.070  -2.609  -3.704  0.00  0.00    +0.210 HD
ENDBRANCH  36  37
ENDBRANCH  29  36
ENDBRANCH   1  31
TORSDOF 4
