REMARK  Name = CHEMBL402036
REMARK  10 active torsions:
REMARK  status: ('A' for Active; 'I' for Inactive)
REMARK    1  A    between atoms: C_1  and  N_2
REMARK    2  A    between atoms: N_2  and  C_3
REMARK    3  A    between atoms: C_4  and  C_6
REMARK    4  A    between atoms: C_11  and  O_15
REMARK    5  A    between atoms: O_15  and  C_16
REMARK    6  A    between atoms: C_19  and  N_23
REMARK    7  A    between atoms: N_23  and  C_24
REMARK    8  A    between atoms: C_24  and  N_26
REMARK    9  A    between atoms: C_27  and  C_29
REMARK   10  A    between atoms: C_29  and  C_30
REMARK                            x       y       z     vdW  Elec       q    Type
REMARK                         _______ _______ _______ _____ _____    ______ ____
ROOT
ATOM      1  C   UNL     1      -0.357  -7.818   1.529  0.00  0.00    +0.164 A 
ATOM      2  C   UNL     1      -1.475  -8.552   1.165  0.00  0.00    +0.051 A 
ATOM      3  C   UNL     1      -1.517  -9.912   1.401  0.00  0.00    +0.027 A 
ATOM      4  C   UNL     1      -0.439 -10.546   2.005  0.00  0.00    +0.036 A 
ATOM      5  C   UNL     1       0.682  -9.812   2.370  0.00  0.00    +0.065 A 
ATOM      6  C   UNL     1       0.726  -8.451   2.127  0.00  0.00    +0.167 A 
ATOM      7  F   UNL     1       1.818  -7.737   2.477  0.00  0.00    -0.202 F 
ENDROOT
BRANCH   4   8
ATOM      8  N   UNL     1      -0.482 -11.925   2.246  0.00  0.00    -0.297 N 
ATOM      9  H   UNL     1      -0.142 -12.282   3.082  0.00  0.00    +0.154 HD
BRANCH   8  10
ATOM     10  C   UNL     1      -0.994 -12.755   1.317  0.00  0.00    +0.141 C 
ATOM     11  S   UNL     1      -1.463 -12.144  -0.212  0.00  0.00    -0.018 S 
BRANCH  10  12
ATOM     12  N   UNL     1      -1.138 -14.067   1.591  0.00  0.00    -0.267 N 
ATOM     13  C   UNL     1      -1.650 -14.898   0.662  0.00  0.00    +0.223 C 
ATOM     14  O   UNL     1      -1.982 -14.465  -0.421  0.00  0.00    -0.275 OA
ATOM     15  H   UNL     1      -0.872 -14.413   2.457  0.00  0.00    +0.157 HD
BRANCH  13  16
ATOM     16  C   UNL     1      -1.811 -16.364   0.969  0.00  0.00    +0.131 C 
BRANCH  16  17
ATOM     17  C   UNL     1      -2.401 -17.066  -0.227  0.00  0.00    -0.039 A 
ATOM     18  C   UNL     1      -3.773 -17.175  -0.357  0.00  0.00    +0.004 A 
ATOM     19  C   UNL     1      -4.314 -17.818  -1.454  0.00  0.00    +0.000 A 
ATOM     20  C   UNL     1      -3.484 -18.353  -2.421  0.00  0.00    +0.000 A 
ATOM     21  C   UNL     1      -2.112 -18.244  -2.292  0.00  0.00    +0.000 A 
ATOM     22  C   UNL     1      -1.571 -17.597  -1.197  0.00  0.00    +0.004 A 
ENDBRANCH  16  17
ENDBRANCH  13  16
ENDBRANCH  10  12
ENDBRANCH   8  10
ENDBRANCH   4   8
BRANCH   1  23
ATOM     23  O   UNL     1      -0.317  -6.479   1.296  0.00  0.00    -0.452 OA
BRANCH  23  29
ATOM     24  C   UNL     1       0.249  -2.066  -0.672  0.00  0.00    +0.077 A 
ATOM     25  C   UNL     1       1.005  -2.844  -1.494  0.00  0.00    +0.049 A 
ATOM     26  C   UNL     1       1.104  -4.226  -1.255  0.00  0.00    +0.082 A 
ATOM     27  C   UNL     1       0.381  -4.701  -0.139  0.00  0.00    +0.080 A 
ATOM     28  S   UNL     1      -0.381  -3.238   0.517  0.00  0.00    -0.078 S 
ATOM     29  C   UNL     1       0.384  -6.040   0.219  0.00  0.00    +0.146 A 
ATOM     30  C   UNL     1       1.129  -6.920  -0.559  0.00  0.00    +0.067 A 
ATOM     31  C   UNL     1       1.825  -6.412  -1.647  0.00  0.00    +0.115 A 
ATOM     32  N   UNL     1       1.804  -5.144  -1.962  0.00  0.00    -0.254 NA
BRANCH  24  36
ATOM     33  C   UNL     1      -0.945   1.438   0.152  0.00  0.00    +0.132 C 
ATOM     34  N   UNL     1      -0.610   0.017   0.270  0.00  0.00    -0.303 N 
ATOM     35  C   UNL     1      -0.955  -0.718   1.490  0.00  0.00    +0.132 C 
ATOM     36  C   UNL     1       0.015  -0.615  -0.743  0.00  0.00    +0.253 C 
ATOM     37  O   UNL     1       0.385   0.014  -1.716  0.00  0.00    -0.269 OA
ENDBRANCH  24  36
ENDBRANCH  23  29
ENDBRANCH   1  23
TORSDOF 8
