REMARK  Name = CHEMBL224842
REMARK  5 active torsions:
REMARK  status: ('A' for Active; 'I' for Inactive)
REMARK    1  A    between atoms: C_1  and  S_2
REMARK    2  A    between atoms: S_2  and  C_5
REMARK    3  A    between atoms: N_8  and  C_11
REMARK    4  A    between atoms: C_11  and  C_12
REMARK    5  A    between atoms: C_22  and  C_24
REMARK                            x       y       z     vdW  Elec       q    Type
REMARK                         _______ _______ _______ _____ _____    ______ ____
ROOT
ATOM      1  C   UNL     1       1.128  -3.381  -5.740  0.00  0.00    -0.029 A 
ATOM      2  C   UNL     1       2.037  -4.347  -5.328  0.00  0.00    +0.025 A 
ATOM      3  C   UNL     1       1.761  -5.679  -5.563  0.00  0.00    +0.113 A 
ATOM      4  N   UNL     1       0.649  -6.042  -6.173  0.00  0.00    -0.240 NA
ATOM      5  C   UNL     1      -0.242  -5.152  -6.581  0.00  0.00    +0.125 A 
ATOM      6  C   UNL     1      -0.032  -3.793  -6.372  0.00  0.00    +0.048 A 
ATOM      7  N   UNL     1      -1.402  -5.580  -7.220  0.00  0.00    -0.279 N 
ATOM      8  C   UNL     1      -1.568  -6.916  -7.527  0.00  0.00    +0.165 A 
ATOM      9  N   UNL     1      -0.785  -7.931  -7.211  0.00  0.00    -0.232 NA
ATOM     10  C   UNL     1      -1.072  -9.157  -7.574  0.00  0.00    +0.139 A 
ATOM     11  C   UNL     1      -2.239  -9.325  -8.305  0.00  0.00    +0.110 A 
ATOM     12  S   UNL     1      -2.821  -7.639  -8.387  0.00  0.00    -0.042 S 
ATOM     13  H   UNL     1      -2.094  -4.940  -7.450  0.00  0.00    +0.155 HD
ENDROOT
BRANCH  11  14
ATOM     14  C   UNL     1      -2.819 -10.520  -8.841  0.00  0.00    +0.108 C 
ATOM     15  N   UNL     1      -3.280 -11.468  -9.265  0.00  0.00    -0.190 NA
ENDBRANCH  11  14
BRANCH   1  16
ATOM     16  C   UNL     1       1.397  -1.918  -5.500  0.00  0.00    +0.119 C 
BRANCH  16  20
ATOM     17  C   UNL     1       0.868  -0.372  -1.549  0.00  0.00    +0.133 C 
ATOM     18  C   UNL     1       0.166   0.311  -2.726  0.00  0.00    +0.041 C 
ATOM     19  C   UNL     1       0.876  -0.068  -4.027  0.00  0.00    +0.086 C 
ATOM     20  N   UNL     1       0.846  -1.527  -4.195  0.00  0.00    -0.298 NA
ATOM     21  C   UNL     1       1.556  -2.202  -3.101  0.00  0.00    +0.086 C 
ATOM     22  C   UNL     1       0.866  -1.886  -1.772  0.00  0.00    +0.041 C 
BRANCH  17  24
ATOM     23  C   UNL     1      -0.033   1.829  -0.006  0.00  0.00    +0.194 C 
ATOM     24  S   UNL     1      -0.012   0.016  -0.010  0.00  0.00    -0.031 S 
ATOM     25  O   UNL     1       0.779  -0.427   1.084  0.00  0.00    -0.174 OA
ATOM     26  O   UNL     1      -1.350  -0.449  -0.129  0.00  0.00    -0.174 OA
ENDBRANCH  17  24
ENDBRANCH  16  20
ENDBRANCH   1  16
TORSDOF 4
