REMARK  Name = CHEMBL380735
REMARK  5 active torsions:
REMARK  status: ('A' for Active; 'I' for Inactive)
REMARK    1  A    between atoms: C_2  and  N_20
REMARK    2  A    between atoms: N_10  and  C_13
REMARK    3  A    between atoms: C_13  and  C_14
REMARK    4  A    between atoms: C_14  and  N_15
REMARK    5  A    between atoms: C_24  and  C_26
REMARK                            x       y       z     vdW  Elec       q    Type
REMARK                         _______ _______ _______ _____ _____    ______ ____
ROOT
ATOM      1  C   UNL     1      -2.463   1.238   0.029  0.00  0.00    +0.085 A 
ATOM      2  C   UNL     1      -2.314  -0.145   0.020  0.00  0.00    +0.129 A 
ATOM      3  N   UNL     1      -1.087  -0.663   0.027  0.00  0.00    -0.222 NA
ATOM      4  C   UNL     1      -0.025   0.115   0.044  0.00  0.00    +0.199 A 
ATOM      5  N   UNL     1      -0.123   1.429   0.054  0.00  0.00    -0.334 N 
ATOM      6  C   UNL     1      -1.314   2.025   0.041  0.00  0.00    +0.103 A 
ATOM      7  N   UNL     1      -1.409   3.408   0.051  0.00  0.00    -0.314 N 
ATOM      8  C   UNL     1      -0.208   4.248  -0.074  0.00  0.00    +0.122 C 
ATOM      9  C   UNL     1      -0.445   5.273  -1.188  0.00  0.00    +0.103 C 
ATOM     10  N   UNL     1      -1.690   6.005  -0.918  0.00  0.00    -0.301 NA
ATOM     11  C   UNL     1      -2.851   5.106  -0.938  0.00  0.00    +0.103 C 
ATOM     12  C   UNL     1      -2.714   4.074   0.180  0.00  0.00    +0.122 C 
ATOM     13  H   UNL     1       0.682   1.970   0.067  0.00  0.00    +0.168 HD
ENDROOT
BRANCH   2  14
ATOM     14  N   UNL     1      -3.428  -0.973   0.003  0.00  0.00    -0.279 N 
ATOM     15  C   UNL     1      -3.271  -2.341  -0.113  0.00  0.00    +0.165 A 
ATOM     16  N   UNL     1      -2.148  -3.036  -0.123  0.00  0.00    -0.232 NA
ATOM     17  C   UNL     1      -2.153  -4.341  -0.241  0.00  0.00    +0.139 A 
ATOM     18  C   UNL     1      -3.396  -4.945  -0.354  0.00  0.00    +0.110 A 
ATOM     19  S   UNL     1      -4.465  -3.517  -0.269  0.00  0.00    -0.042 S 
ATOM     20  H   UNL     1      -4.317  -0.591   0.072  0.00  0.00    +0.155 HD
BRANCH  18  21
ATOM     21  C   UNL     1      -3.731  -6.330  -0.496  0.00  0.00    +0.108 C 
ATOM     22  N   UNL     1      -3.996  -7.429  -0.608  0.00  0.00    -0.190 NA
ENDBRANCH  18  21
ENDBRANCH   2  14
BRANCH  10  23
ATOM     23  C   UNL     1      -1.865   7.113  -1.867  0.00  0.00    +0.066 C 
BRANCH  23  24
ATOM     24  C   UNL     1      -3.027   7.997  -1.410  0.00  0.00    -0.063 C 
BRANCH  24  25
ATOM     25  N   UNL     1      -3.202   9.105  -2.359  0.00  0.00    +0.381 N 
ATOM     26  C   UNL     1      -3.700   8.590  -3.661  0.00  0.00    -0.079 C 
ATOM     27  C   UNL     1      -4.350   9.838  -4.310  0.00  0.00    -0.020 C 
ATOM     28  C   UNL     1      -5.001  10.555  -3.105  0.00  0.00    -0.020 C 
ATOM     29  C   UNL     1      -4.241  10.036  -1.870  0.00  0.00    -0.079 C 
ATOM     30  H   UNL     1      -2.329   9.594  -2.489  0.00  0.00    -0.082 HD
ENDBRANCH  24  25
ENDBRANCH  23  24
ENDBRANCH  10  23
TORSDOF 5
