REMARK  Name = CHEMBL375306
REMARK  4 active torsions:
REMARK  status: ('A' for Active; 'I' for Inactive)
REMARK    1  A    between atoms: C_4  and  N_17
REMARK    2  A    between atoms: C_6  and  C_7
REMARK    3  A    between atoms: C_7  and  N_8
REMARK    4  A    between atoms: C_21  and  C_23
REMARK                            x       y       z     vdW  Elec       q    Type
REMARK                         _______ _______ _______ _____ _____    ______ ____
ROOT
ATOM      1  C   UNL     1      -0.031   1.133   0.006  0.00  0.00    +0.021 A 
ATOM      2  C   UNL     1       1.105   1.918  -0.025  0.00  0.00    +0.113 A 
ATOM      3  N   UNL     1       2.305   1.371  -0.026  0.00  0.00    -0.240 NA
ATOM      4  C   UNL     1       2.471   0.058   0.002  0.00  0.00    +0.124 A 
ATOM      5  C   UNL     1       1.371  -0.793   0.035  0.00  0.00    +0.045 A 
ATOM      6  C   UNL     1       0.099  -0.249   0.037  0.00  0.00    -0.059 A 
ENDROOT
BRANCH   4   7
ATOM      7  N   UNL     1       3.756  -0.476  -0.000  0.00  0.00    -0.279 N 
ATOM      8  C   UNL     1       4.849   0.357  -0.137  0.00  0.00    +0.165 A 
ATOM      9  N   UNL     1       4.862   1.659  -0.360  0.00  0.00    -0.232 NA
ATOM     10  C   UNL     1       5.986   2.324  -0.469  0.00  0.00    +0.139 A 
ATOM     11  C   UNL     1       7.154   1.586  -0.336  0.00  0.00    +0.110 A 
ATOM     12  S   UNL     1       6.481  -0.044  -0.053  0.00  0.00    -0.042 S 
ATOM     13  H   UNL     1       3.884  -1.433   0.094  0.00  0.00    +0.155 HD
BRANCH  11  14
ATOM     14  C   UNL     1       8.519   2.013  -0.403  0.00  0.00    +0.108 C 
ATOM     15  N   UNL     1       9.601   2.353  -0.457  0.00  0.00    -0.190 NA
ENDBRANCH  11  14
ENDBRANCH   4   7
BRANCH   6  16
ATOM     16  C   UNL     1      -1.118  -1.137   0.072  0.00  0.00    -0.043 C 
BRANCH  16  17
ATOM     17  N   UNL     1      -1.530  -1.458  -1.301  0.00  0.00    +0.384 N 
ATOM     18  C   UNL     1      -1.953  -0.228  -1.983  0.00  0.00    -0.059 C 
ATOM     19  C   UNL     1      -2.273  -0.542  -3.448  0.00  0.00    +0.091 C 
ATOM     20  N   UNL     1      -3.264  -1.629  -3.486  0.00  0.00    -0.289 N 
ATOM     21  C   UNL     1      -2.996  -2.840  -2.695  0.00  0.00    +0.091 C 
ATOM     22  C   UNL     1      -2.641  -2.417  -1.266  0.00  0.00    -0.059 C 
ATOM     23  C   UNL     1      -4.386  -1.518  -4.225  0.00  0.00    +0.300 C 
ATOM     24  O   UNL     1      -4.548  -0.552  -4.944  0.00  0.00    -0.253 OA
ATOM     25  N   UNL     1      -5.329  -2.479  -4.165  0.00  0.00    -0.313 N 
ATOM     26  H   UNL     1      -5.236  -3.213  -3.537  0.00  0.00    +0.146 HD
ATOM     27  H   UNL     1      -6.102  -2.438  -4.751  0.00  0.00    +0.146 HD
ATOM     28  H   UNL     1      -0.752  -1.865  -1.798  0.00  0.00    -0.081 HD
ENDBRANCH  16  17
ENDBRANCH   6  16
TORSDOF 4
