REMARK  Name = CHEMBL268826
REMARK  6 active torsions:
REMARK  status: ('A' for Active; 'I' for Inactive)
REMARK    1  A    between atoms: C_1  and  C_2
REMARK    2  A    between atoms: C_6  and  N_8
REMARK    3  A    between atoms: N_11  and  C_12
REMARK    4  A    between atoms: C_15  and  C_18
REMARK    5  A    between atoms: C_23  and  N_33
REMARK    6  A    between atoms: C_26  and  C_27
REMARK                            x       y       z     vdW  Elec       q    Type
REMARK                         _______ _______ _______ _____ _____    ______ ____
ROOT
ATOM      1  C   UNL     1      -0.488  -6.263   2.441  0.00  0.00    +0.035 A 
ATOM      2  C   UNL     1       0.049  -7.000   1.393  0.00  0.00    +0.024 A 
ATOM      3  C   UNL     1       0.102  -8.376   1.470  0.00  0.00    +0.010 A 
ATOM      4  C   UNL     1      -0.386  -9.028   2.603  0.00  0.00    -0.017 A 
ATOM      5  C   UNL     1      -0.925  -8.286   3.654  0.00  0.00    +0.010 A 
ATOM      6  C   UNL     1      -0.970  -6.910   3.573  0.00  0.00    +0.024 A 
ENDROOT
BRANCH   4   7
ATOM      7  C   UNL     1      -0.332 -10.507   2.689  0.00  0.00    +0.000 A 
ATOM      8  C   UNL     1      -1.460 -11.226   2.890  0.00  0.00    +0.055 A 
ATOM      9  S   UNL     1      -0.878 -12.912   2.917  0.00  0.00    -0.095 S 
ATOM     10  C   UNL     1       0.849 -12.614   2.659  0.00  0.00    +0.032 A 
ATOM     11  C   UNL     1       0.940 -11.213   2.552  0.00  0.00    +0.037 A 
ATOM     12  C   UNL     1       2.241 -10.691   2.332  0.00  0.00    +0.125 A 
ATOM     13  N   UNL     1       3.287 -11.485   2.232  0.00  0.00    -0.239 NA
ATOM     14  C   UNL     1       3.212 -12.801   2.326  0.00  0.00    +0.122 A 
ATOM     15  C   UNL     1       1.984 -13.416   2.553  0.00  0.00    +0.015 A 
BRANCH  15  16
ATOM     16  C   UNL     1       1.884 -14.890   2.661  0.00  0.00    -0.012 A 
ATOM     17  C   UNL     1       1.193 -15.488   3.720  0.00  0.00    +0.028 A 
ATOM     18  C   UNL     1       1.124 -16.864   3.782  0.00  0.00    +0.111 A 
ATOM     19  N   UNL     1       1.698 -17.613   2.859  0.00  0.00    -0.263 NA
ATOM     20  C   UNL     1       2.358 -17.090   1.844  0.00  0.00    +0.111 A 
ATOM     21  C   UNL     1       2.472 -15.723   1.702  0.00  0.00    +0.028 A 
ENDBRANCH  15  16
BRANCH  12  22
ATOM     22  N   UNL     1       2.414  -9.320   2.220  0.00  0.00    -0.343 N 
ATOM     23  H   UNL     1       1.797  -8.715   2.662  0.00  0.00    +0.144 HD
ATOM     24  H   UNL     1       3.152  -8.965   1.701  0.00  0.00    +0.144 HD
ENDBRANCH  12  22
ENDBRANCH   4   7
BRANCH   1  28
ATOM     25  N   UNL     1      -0.689  -2.925   1.073  0.00  0.00    -0.269 N 
ATOM     26  C   UNL     1      -0.737  -4.269   1.168  0.00  0.00    +0.308 C 
ATOM     27  O   UNL     1      -0.958  -4.941   0.179  0.00  0.00    -0.252 OA
ATOM     28  N   UNL     1      -0.540  -4.867   2.360  0.00  0.00    -0.269 N 
ATOM     29  H   UNL     1      -0.444  -2.393   1.846  0.00  0.00    +0.156 HD
ATOM     30  H   UNL     1      -0.435  -4.330   3.161  0.00  0.00    +0.156 HD
BRANCH  25  36
ATOM     31  C   UNL     1       0.065   0.762  -2.091  0.00  0.00    +0.044 C 
ATOM     32  C   UNL     1      -0.642  -0.510  -1.699  0.00  0.00    -0.049 A 
ATOM     33  C   UNL     1      -1.592  -1.060  -2.541  0.00  0.00    +0.003 A 
ATOM     34  C   UNL     1      -2.243  -2.226  -2.186  0.00  0.00    +0.002 A 
ATOM     35  C   UNL     1      -1.946  -2.847  -0.988  0.00  0.00    +0.023 A 
ATOM     36  C   UNL     1      -0.992  -2.299  -0.141  0.00  0.00    +0.035 A 
ATOM     37  C   UNL     1      -0.336  -1.129  -0.503  0.00  0.00    +0.026 A 
ENDBRANCH  25  36
ENDBRANCH   1  28
TORSDOF 5
