REMARK  Name = CHEMBL494872
REMARK  9 active torsions:
REMARK  status: ('A' for Active; 'I' for Inactive)
REMARK    1  A    between atoms: C_1  and  O_2
REMARK    2  A    between atoms: O_2  and  C_3
REMARK    3  A    between atoms: C_6  and  C_15
REMARK    4  A    between atoms: C_12  and  O_13
REMARK    5  A    between atoms: O_13  and  C_14
REMARK    6  A    between atoms: C_15  and  N_16
REMARK    7  A    between atoms: C_24  and  C_25
REMARK    8  A    between atoms: N_27  and  C_28
REMARK    9  A    between atoms: C_32  and  C_34
REMARK                            x       y       z     vdW  Elec       q    Type
REMARK                         _______ _______ _______ _____ _____    ______ ____
ROOT
ATOM      1  N   UNL     1       3.281   2.388  -3.144  0.00  0.00    -0.293 N 
ATOM      2  C   UNL     1       2.911   2.491  -1.734  0.00  0.00    +0.113 C 
ATOM      3  C   UNL     1       4.043   2.000  -0.835  0.00  0.00    +0.055 C 
ATOM      4  C   UNL     1       5.338   2.664  -1.223  0.00  0.00    -0.022 A 
ATOM      5  C   UNL     1       5.574   2.982  -2.559  0.00  0.00    +0.041 A 
ATOM      6  C   UNL     1       6.777   3.578  -2.934  0.00  0.00    +0.013 A 
ATOM      7  C   UNL     1       7.732   3.865  -1.976  0.00  0.00    +0.001 A 
ATOM      8  C   UNL     1       7.500   3.564  -0.649  0.00  0.00    +0.013 A 
ATOM      9  C   UNL     1       6.300   2.960  -0.263  0.00  0.00    +0.041 A 
ATOM     10  C   UNL     1       4.525   2.694  -3.560  0.00  0.00    +0.247 C 
ATOM     11  O   UNL     1       4.781   2.739  -4.747  0.00  0.00    -0.270 OA
ENDROOT
BRANCH   9  12
ATOM     12  C   UNL     1       6.055   2.637   1.159  0.00  0.00    +0.249 C 
ATOM     13  O   UNL     1       5.066   2.005   1.477  0.00  0.00    -0.270 OA
ATOM     14  N   UNL     1       6.926   3.045   2.103  0.00  0.00    -0.281 N 
ATOM     15  H   UNL     1       7.749   3.488   1.843  0.00  0.00    +0.155 HD
BRANCH  14  16
ATOM     16  C   UNL     1       6.645   2.827   3.456  0.00  0.00    +0.034 A 
ATOM     17  C   UNL     1       5.982   1.673   3.852  0.00  0.00    +0.026 A 
ATOM     18  C   UNL     1       5.705   1.460   5.188  0.00  0.00    +0.041 A 
ATOM     19  C   UNL     1       6.087   2.398   6.133  0.00  0.00    +0.135 A 
ATOM     20  C   UNL     1       6.748   3.550   5.740  0.00  0.00    +0.092 A 
ATOM     21  C   UNL     1       7.032   3.763   4.406  0.00  0.00    +0.038 A 
ATOM     22  F   UNL     1       5.814   2.189   7.439  0.00  0.00    -0.205 F 
BRANCH  20  23
ATOM     23  C   UNL     1       7.162   4.568   6.771  0.00  0.00    +0.420 C 
ATOM     24  F   UNL     1       7.808   5.636   6.138  0.00  0.00    -0.166 F 
ATOM     25  F   UNL     1       6.029   5.040   7.442  0.00  0.00    -0.166 F 
ATOM     26  F   UNL     1       8.035   3.974   7.689  0.00  0.00    -0.166 F 
ENDBRANCH  20  23
ENDBRANCH  14  16
ENDBRANCH   9  12
BRANCH   1  27
ATOM     27  C   UNL     1       2.285   1.938  -4.120  0.00  0.00    +0.143 C 
BRANCH  27  31
ATOM     28  C   UNL     1      -0.548  -0.275  -6.436  0.00  0.00    +0.162 A 
ATOM     29  C   UNL     1       0.358   0.428  -5.696  0.00  0.00    +0.059 A 
ATOM     30  C   UNL     1       1.321  -0.260  -4.939  0.00  0.00    +0.009 A 
ATOM     31  C   UNL     1       2.270   0.431  -4.164  0.00  0.00    -0.019 A 
ATOM     32  C   UNL     1       3.178  -0.301  -3.452  0.00  0.00    +0.025 A 
ATOM     33  C   UNL     1       3.145  -1.692  -3.507  0.00  0.00    +0.112 A 
ATOM     34  N   UNL     1       2.260  -2.333  -4.231  0.00  0.00    -0.255 NA
ATOM     35  C   UNL     1       1.343  -1.677  -4.951  0.00  0.00    +0.075 A 
ATOM     36  C   UNL     1       0.398  -2.372  -5.723  0.00  0.00    +0.077 A 
ATOM     37  C   UNL     1      -0.530  -1.678  -6.444  0.00  0.00    +0.164 A 
BRANCH  28  39
ATOM     38  C   UNL     1      -1.446   1.818  -7.117  0.00  0.00    +0.277 C 
ATOM     39  O   UNL     1      -1.480   0.390  -7.167  0.00  0.00    -0.491 OA
ENDBRANCH  28  39
BRANCH  37  40
ATOM     40  O   UNL     1      -1.446  -2.356  -7.185  0.00  0.00    -0.491 OA
ATOM     41  C   UNL     1      -1.379  -3.783  -7.154  0.00  0.00    +0.277 C 
ENDBRANCH  37  40
ENDBRANCH  27  31
ENDBRANCH   1  27
TORSDOF 7
