REMARK  Name = CHEMBL200324
REMARK  13 active torsions:
REMARK  status: ('A' for Active; 'I' for Inactive)
REMARK    1  A    between atoms: C_1  and  O_2
REMARK    2  A    between atoms: O_2  and  C_3
REMARK    3  A    between atoms: C_3  and  C_4
REMARK    4  A    between atoms: C_4  and  O_5
REMARK    5  A    between atoms: O_5  and  C_6
REMARK    6  A    between atoms: C_11  and  O_12
REMARK    7  A    between atoms: O_12  and  C_13
REMARK    8  A    between atoms: C_14  and  N_18
REMARK    9  A    between atoms: C_22  and  O_26
REMARK   10  A    between atoms: O_26  and  C_27
REMARK   11  A    between atoms: C_27  and  C_28
REMARK   12  A    between atoms: C_28  and  O_29
REMARK   13  A    between atoms: O_29  and  C_30
REMARK                            x       y       z     vdW  Elec       q    Type
REMARK                         _______ _______ _______ _____ _____    ______ ____
ROOT
ATOM      1  N   UNL     1      -2.866  -8.562  -0.893  0.00  0.00    -0.228 NA
ATOM      2  C   UNL     1      -3.012  -9.856  -0.918  0.00  0.00    +0.098 C 
ATOM      3  C   UNL     1      -4.369 -10.513  -1.109  0.00  0.00    +0.142 C 
ATOM      4  C   UNL     1      -4.208 -11.548  -2.202  0.00  0.00    +0.203 C 
ATOM      5  C   UNL     1      -2.988 -12.378  -2.240  0.00  0.00    +0.167 C 
ATOM      6  C   UNL     1      -1.868 -12.015  -1.568  0.00  0.00    +0.102 C 
ATOM      7  C   UNL     1      -1.857 -10.785  -0.766  0.00  0.00    +0.204 C 
ATOM      8  O   UNL     1      -0.940 -10.537  -0.006  0.00  0.00    -0.286 OA
ATOM      9  O   UNL     1      -5.070 -11.694  -3.036  0.00  0.00    -0.288 OA
ENDROOT
BRANCH   1  16
ATOM     10  C   UNL     1       0.681  -7.329  -4.278  0.00  0.00    +0.164 A 
ATOM     11  C   UNL     1       1.190  -6.999  -3.054  0.00  0.00    +0.078 A 
ATOM     12  C   UNL     1       0.425  -7.227  -1.901  0.00  0.00    +0.080 A 
ATOM     13  C   UNL     1      -0.870  -7.799  -2.025  0.00  0.00    +0.048 A 
ATOM     14  C   UNL     1      -1.366  -8.128  -3.290  0.00  0.00    +0.063 A 
ATOM     15  C   UNL     1      -0.601  -7.889  -4.398  0.00  0.00    +0.162 A 
ATOM     16  C   UNL     1      -1.620  -8.018  -0.841  0.00  0.00    +0.164 A 
ATOM     17  N   UNL     1      -1.070  -7.675   0.322  0.00  0.00    -0.216 NA
ATOM     18  C   UNL     1       0.138  -7.146   0.383  0.00  0.00    +0.224 A 
ATOM     19  N   UNL     1       0.877  -6.921  -0.679  0.00  0.00    -0.235 NA
BRANCH  15  20
ATOM     20  O   UNL     1      -1.085  -8.202  -5.628  0.00  0.00    -0.491 OA
ATOM     21  C   UNL     1      -2.395  -8.769  -5.685  0.00  0.00    +0.277 C 
ENDBRANCH  15  20
BRANCH  10  22
ATOM     22  O   UNL     1       1.423  -7.108  -5.394  0.00  0.00    -0.486 OA
BRANCH  22  23
ATOM     23  C   UNL     1       2.719  -6.536  -5.208  0.00  0.00    +0.257 C 
BRANCH  23  24
ATOM     24  C   UNL     1       3.399  -6.362  -6.568  0.00  0.00    +0.200 C 
BRANCH  24  26
ATOM     25  C   UNL     1       3.228  -5.171  -8.641  0.00  0.00    +0.194 C 
ATOM     26  O   UNL     1       2.673  -5.408  -7.345  0.00  0.00    -0.380 OA
ENDBRANCH  24  26
ENDBRANCH  23  24
ENDBRANCH  22  23
ENDBRANCH  10  22
ENDBRANCH   1  16
BRANCH   5  27
ATOM     27  O   UNL     1      -2.988 -13.524  -2.958  0.00  0.00    -0.485 OA
BRANCH  27  28
ATOM     28  C   UNL     1      -1.780 -14.289  -2.960  0.00  0.00    +0.270 C 
BRANCH  28  29
ATOM     29  C   UNL     1      -1.970 -15.540  -3.820  0.00  0.00    +0.270 C 
BRANCH  29  30
ATOM     30  O   UNL     1      -2.176 -15.156  -5.181  0.00  0.00    -0.489 OA
BRANCH  30  31
ATOM     31  C   UNL     1      -2.363 -16.156  -6.082  0.00  0.00    +0.121 A 
ATOM     32  C   UNL     1      -2.354 -17.479  -5.665  0.00  0.00    +0.045 A 
ATOM     33  C   UNL     1      -2.544 -18.493  -6.583  0.00  0.00    +0.004 A 
ATOM     34  C   UNL     1      -2.743 -18.191  -7.917  0.00  0.00    +0.000 A 
ATOM     35  C   UNL     1      -2.752 -16.873  -8.336  0.00  0.00    +0.004 A 
ATOM     36  C   UNL     1      -2.569 -15.855  -7.421  0.00  0.00    +0.045 A 
ENDBRANCH  30  31
ENDBRANCH  29  30
ENDBRANCH  28  29
ENDBRANCH  27  28
ENDBRANCH   5  27
TORSDOF 11
