REMARK  Name = CHEMBL380735
REMARK  5 active torsions:
REMARK  status: ('A' for Active; 'I' for Inactive)
REMARK    1  A    between atoms: C_6  and  N_7
REMARK    2  A    between atoms: N_10  and  C_13
REMARK    3  A    between atoms: C_13  and  C_14
REMARK    4  A    between atoms: C_14  and  N_15
REMARK    5  A    between atoms: C_24  and  C_26
REMARK                            x       y       z     vdW  Elec       q    Type
REMARK                         _______ _______ _______ _____ _____    ______ ____
ROOT
ATOM      1  C   UNL     1      -0.007   1.339   0.004  0.00  0.00    +0.087 A 
ATOM      2  C   UNL     1       1.199   2.032  -0.008  0.00  0.00    +0.129 A 
ATOM      3  N   UNL     1       2.340   1.345  -0.024  0.00  0.00    -0.220 NA
ATOM      4  C   UNL     1       2.336   0.027  -0.028  0.00  0.00    +0.225 A 
ATOM      5  N   UNL     1       1.215  -0.665  -0.017  0.00  0.00    -0.221 NA
ATOM      6  C   UNL     1       0.033  -0.053  -0.000  0.00  0.00    +0.126 A 
ATOM      7  N   UNL     1       1.214   3.421  -0.005  0.00  0.00    -0.279 N 
ATOM      8  C   UNL     1       2.414   4.099   0.091  0.00  0.00    +0.165 A 
ATOM      9  N   UNL     1       3.636   3.600   0.093  0.00  0.00    -0.232 NA
ATOM     10  C   UNL     1       4.690   4.373   0.191  0.00  0.00    +0.139 A 
ATOM     11  C   UNL     1       4.448   5.735   0.292  0.00  0.00    +0.110 A 
ATOM     12  S   UNL     1       2.664   5.758   0.225  0.00  0.00    -0.042 S 
ATOM     13  H   UNL     1       0.381   3.914  -0.070  0.00  0.00    +0.155 HD
ENDROOT
BRANCH   6  14
ATOM     14  N   UNL     1      -1.141  -0.790   0.012  0.00  0.00    -0.313 N 
ATOM     15  C   UNL     1      -1.117  -2.245   0.226  0.00  0.00    +0.122 C 
ATOM     16  C   UNL     1      -2.107  -2.589   1.344  0.00  0.00    +0.103 C 
ATOM     17  N   UNL     1      -3.426  -2.031   1.014  0.00  0.00    -0.301 NA
ATOM     18  C   UNL     1      -3.382  -0.565   0.945  0.00  0.00    +0.103 C 
ATOM     19  C   UNL     1      -2.445  -0.137  -0.183  0.00  0.00    +0.122 C 
BRANCH  17  20
ATOM     20  C   UNL     1      -4.443  -2.483   1.973  0.00  0.00    +0.066 C 
BRANCH  20  21
ATOM     21  C   UNL     1      -5.832  -2.094   1.464  0.00  0.00    -0.063 C 
BRANCH  21  22
ATOM     22  N   UNL     1      -6.849  -2.546   2.423  0.00  0.00    +0.381 N 
ATOM     23  C   UNL     1      -6.751  -1.762   3.681  0.00  0.00    -0.079 C 
ATOM     24  C   UNL     1      -8.155  -1.932   4.314  0.00  0.00    -0.020 C 
ATOM     25  C   UNL     1      -9.094  -1.901   3.087  0.00  0.00    -0.020 C 
ATOM     26  C   UNL     1      -8.204  -2.284   1.890  0.00  0.00    -0.079 C 
ATOM     27  H   UNL     1      -6.735  -3.530   2.614  0.00  0.00    -0.082 HD
ENDBRANCH  21  22
ENDBRANCH  20  21
ENDBRANCH  17  20
ENDBRANCH   6  14
BRANCH  11  28
ATOM     28  C   UNL     1       5.373   6.822   0.411  0.00  0.00    +0.108 C 
ATOM     29  N   UNL     1       6.107   7.684   0.505  0.00  0.00    -0.190 NA
ENDBRANCH  11  28
TORSDOF 5
