REMARK  Name = CHEMBL375306
REMARK  4 active torsions:
REMARK  status: ('A' for Active; 'I' for Inactive)
REMARK    1  A    between atoms: C_4  and  N_17
REMARK    2  A    between atoms: C_6  and  C_7
REMARK    3  A    between atoms: C_7  and  N_8
REMARK    4  A    between atoms: C_21  and  C_23
REMARK                            x       y       z     vdW  Elec       q    Type
REMARK                         _______ _______ _______ _____ _____    ______ ____
ROOT
ATOM      1  C   UNL     1      -0.018   1.170   0.013  0.00  0.00    +0.025 A 
ATOM      2  C   UNL     1       1.126   1.943  -0.015  0.00  0.00    +0.113 A 
ATOM      3  N   UNL     1       2.321   1.384  -0.016  0.00  0.00    -0.240 NA
ATOM      4  C   UNL     1       2.472   0.069   0.011  0.00  0.00    +0.125 A 
ATOM      5  C   UNL     1       1.364  -0.770   0.041  0.00  0.00    +0.048 A 
ATOM      6  C   UNL     1       0.098  -0.213   0.042  0.00  0.00    -0.029 A 
ENDROOT
BRANCH   4   7
ATOM      7  N   UNL     1       3.752  -0.478   0.009  0.00  0.00    -0.279 N 
ATOM      8  C   UNL     1       4.854   0.343  -0.125  0.00  0.00    +0.165 A 
ATOM      9  N   UNL     1       4.881   1.645  -0.346  0.00  0.00    -0.232 NA
ATOM     10  C   UNL     1       6.013   2.298  -0.451  0.00  0.00    +0.139 A 
ATOM     11  C   UNL     1       7.172   1.547  -0.319  0.00  0.00    +0.110 A 
ATOM     12  S   UNL     1       6.482  -0.076  -0.039  0.00  0.00    -0.042 S 
ATOM     13  H   UNL     1       3.870  -1.437   0.102  0.00  0.00    +0.155 HD
BRANCH  11  14
ATOM     14  C   UNL     1       8.541   1.960  -0.383  0.00  0.00    +0.108 C 
ATOM     15  N   UNL     1       9.628   2.288  -0.434  0.00  0.00    -0.190 NA
ENDBRANCH  11  14
ENDBRANCH   4   7
BRANCH   6  16
ATOM     16  C   UNL     1      -1.129  -1.088   0.074  0.00  0.00    +0.119 C 
BRANCH  16  17
ATOM     17  N   UNL     1      -1.542  -1.402  -1.300  0.00  0.00    -0.295 NA
ATOM     18  C   UNL     1      -1.985  -0.192  -2.006  0.00  0.00    +0.104 C 
ATOM     19  C   UNL     1      -2.234  -0.527  -3.481  0.00  0.00    +0.124 C 
ATOM     20  N   UNL     1      -3.164  -1.664  -3.551  0.00  0.00    -0.283 N 
ATOM     21  C   UNL     1      -2.857  -2.865  -2.759  0.00  0.00    +0.124 C 
ATOM     22  C   UNL     1      -2.584  -2.438  -1.313  0.00  0.00    +0.104 C 
ATOM     23  C   UNL     1      -4.269  -1.607  -4.321  0.00  0.00    +0.300 C 
ATOM     24  O   UNL     1      -4.460  -0.646  -5.041  0.00  0.00    -0.253 OA
ATOM     25  N   UNL     1      -5.163  -2.616  -4.293  0.00  0.00    -0.313 N 
ATOM     26  H   UNL     1      -5.050  -3.347  -3.665  0.00  0.00    +0.146 HD
ATOM     27  H   UNL     1      -5.919  -2.611  -4.900  0.00  0.00    +0.146 HD
ENDBRANCH  16  17
ENDBRANCH   6  16
TORSDOF 4
