REMARK  Name = CHEMBL427025
REMARK  3 active torsions:
REMARK  status: ('A' for Active; 'I' for Inactive)
REMARK    1  A    between atoms: C_6  and  N_7
REMARK    2  A    between atoms: C_10  and  N_13
REMARK    3  A    between atoms: C_18  and  C_20
REMARK                            x       y       z     vdW  Elec       q    Type
REMARK                         _______ _______ _______ _____ _____    ______ ____
ROOT
ATOM      1  C   UNL     1       0.011   1.467  -0.233  0.00  0.00    +0.085 A 
ATOM      2  C   UNL     1       1.227   2.097   0.009  0.00  0.00    +0.106 A 
ATOM      3  N   UNL     1       2.308   1.352   0.230  0.00  0.00    -0.334 N 
ATOM      4  C   UNL     1       2.236   0.037   0.222  0.00  0.00    +0.199 A 
ATOM      5  N   UNL     1       1.104  -0.597  -0.004  0.00  0.00    -0.223 NA
ATOM      6  C   UNL     1      -0.022   0.076  -0.233  0.00  0.00    +0.126 A 
ATOM      7  N   UNL     1       1.313   3.483   0.019  0.00  0.00    -0.280 N 
ATOM      8  C   UNL     1       0.165   4.247  -0.067  0.00  0.00    +0.165 A 
ATOM      9  N   UNL     1      -1.091   3.837  -0.071  0.00  0.00    -0.232 NA
ATOM     10  C   UNL     1      -2.087   4.685  -0.159  0.00  0.00    +0.139 A 
ATOM     11  C   UNL     1      -1.748   6.027  -0.247  0.00  0.00    +0.110 A 
ATOM     12  S   UNL     1       0.034   5.921  -0.184  0.00  0.00    -0.042 S 
ATOM     13  H   UNL     1       2.179   3.915   0.087  0.00  0.00    +0.155 HD
ATOM     14  H   UNL     1       3.160   1.784   0.400  0.00  0.00    +0.168 HD
ENDROOT
BRANCH   6  15
ATOM     15  N   UNL     1      -1.210  -0.599  -0.469  0.00  0.00    -0.315 N 
ATOM     16  C   UNL     1      -1.301  -2.050  -0.255  0.00  0.00    +0.105 C 
ATOM     17  C   UNL     1      -2.481  -2.338   0.679  0.00  0.00    +0.003 C 
ATOM     18  C   UNL     1      -3.749  -1.707   0.102  0.00  0.00    -0.072 C 
ATOM     19  C   UNL     1      -3.568  -0.190   0.006  0.00  0.00    +0.003 C 
ATOM     20  C   UNL     1      -2.403   0.123  -0.930  0.00  0.00    +0.105 C 
BRANCH  18  21
ATOM     21  N   UNL     1      -4.889  -2.009   0.979  0.00  0.00    +0.380 N 
ATOM     22  H   UNL     1      -4.714  -1.633   1.899  0.00  0.00    -0.090 HD
ATOM     23  H   UNL     1      -5.726  -1.593   0.598  0.00  0.00    -0.090 HD
ATOM     24  H   UNL     1      -5.009  -3.009   1.041  0.00  0.00    -0.090 HD
ENDBRANCH  18  21
ENDBRANCH   6  15
BRANCH  11  25
ATOM     25  C   UNL     1      -2.592   7.179  -0.353  0.00  0.00    +0.108 C 
ATOM     26  N   UNL     1      -3.262   8.092  -0.438  0.00  0.00    -0.190 NA
ENDBRANCH  11  25
TORSDOF 3
