REMARK  Name = CHEMBL101221
REMARK  5 active torsions:
REMARK  status: ('A' for Active; 'I' for Inactive)
REMARK    1  A    between atoms: C_1  and  C_2
REMARK    2  A    between atoms: N_4  and  C_5
REMARK    3  A    between atoms: C_6  and  C_21
REMARK    4  A    between atoms: C_8  and  C_10
REMARK    5  A    between atoms: C_19  and  O_20
REMARK                            x       y       z     vdW  Elec       q    Type
REMARK                         _______ _______ _______ _____ _____    ______ ____
ROOT
ATOM      1  C   UNL     1      -1.137  -2.083   0.002  0.00  0.00    +0.221 A 
ATOM      2  C   UNL     1      -2.225  -2.911   0.002  0.00  0.00    +0.132 A 
ATOM      3  N   UNL     1      -1.766  -4.179  -0.008  0.00  0.00    -0.207 NA
ATOM      4  C   UNL     1      -0.455  -4.152  -0.014  0.00  0.00    +0.234 A 
ATOM      5  O   UNL     1      -0.043  -2.870  -0.013  0.00  0.00    -0.421 OA
ENDROOT
BRANCH   4   6
ATOM      6  C   UNL     1       0.427  -5.335  -0.025  0.00  0.00    +0.079 A 
ATOM      7  C   UNL     1       1.802  -5.168  -0.025  0.00  0.00    +0.025 A 
ATOM      8  C   UNL     1       2.635  -6.297  -0.036  0.00  0.00    -0.017 A 
ATOM      9  C   UNL     1       4.035  -6.165  -0.036  0.00  0.00    +0.008 A 
ATOM     10  C   UNL     1       4.817  -7.279  -0.046  0.00  0.00    +0.001 A 
ATOM     11  C   UNL     1       4.251  -8.552  -0.057  0.00  0.00    +0.001 A 
ATOM     12  C   UNL     1       2.900  -8.719  -0.058  0.00  0.00    +0.008 A 
ATOM     13  C   UNL     1       2.059  -7.593  -0.047  0.00  0.00    -0.014 A 
ATOM     14  C   UNL     1       0.660  -7.734  -0.047  0.00  0.00    +0.054 A 
ATOM     15  C   UNL     1      -0.136  -6.629  -0.030  0.00  0.00    +0.130 A 
BRANCH  15  16
ATOM     16  O   UNL     1      -1.486  -6.774  -0.024  0.00  0.00    -0.506 OA
ATOM     17  H   UNL     1      -1.882  -6.810  -0.906  0.00  0.00    +0.292 HD
ENDBRANCH  15  16
ENDBRANCH   4   6
BRANCH   2  18
ATOM     18  C   UNL     1      -3.646  -2.492   0.012  0.00  0.00    +0.005 A 
ATOM     19  C   UNL     1      -4.034  -1.348   0.708  0.00  0.00    +0.010 A 
ATOM     20  C   UNL     1      -5.359  -0.963   0.713  0.00  0.00    +0.001 A 
ATOM     21  C   UNL     1      -6.302  -1.710   0.030  0.00  0.00    +0.000 A 
ATOM     22  C   UNL     1      -5.923  -2.846  -0.662  0.00  0.00    +0.001 A 
ATOM     23  C   UNL     1      -4.600  -3.238  -0.680  0.00  0.00    +0.010 A 
ENDBRANCH   2  18
BRANCH   1  27
ATOM     24  C   UNL     1      -0.018   1.503   0.010  0.00  0.00    +0.109 C 
ATOM     25  C   UNL     1       0.002  -0.004   0.002  0.00  0.00    +0.216 C 
ATOM     26  O   UNL     1       1.061  -0.596  -0.011  0.00  0.00    -0.276 OA
ATOM     27  N   UNL     1      -1.156  -0.694   0.009  0.00  0.00    -0.255 N 
ATOM     28  H   UNL     1      -2.002  -0.220   0.020  0.00  0.00    +0.158 HD
ENDBRANCH   1  27
TORSDOF 4
