REMARK  Name = CHEMBL455655
REMARK  7 active torsions:
REMARK  status: ('A' for Active; 'I' for Inactive)
REMARK    1  A    between atoms: C_1  and  C_2
REMARK    2  A    between atoms: C_2  and  N_3
REMARK    3  A    between atoms: C_7  and  C_8
REMARK    4  A    between atoms: C_13  and  O_17
REMARK    5  A    between atoms: O_17  and  C_18
REMARK    6  A    between atoms: C_21  and  N_25
REMARK    7  A    between atoms: N_31  and  C_34
REMARK                            x       y       z     vdW  Elec       q    Type
REMARK                         _______ _______ _______ _____ _____    ______ ____
ROOT
ATOM      1  C   UNL     1      -6.938   1.883   2.346  0.00  0.00    +0.164 A 
ATOM      2  C   UNL     1      -7.698   1.121   3.222  0.00  0.00    +0.051 A 
ATOM      3  C   UNL     1      -9.027   1.432   3.434  0.00  0.00    +0.027 A 
ATOM      4  C   UNL     1      -9.603   2.507   2.771  0.00  0.00    +0.038 A 
ATOM      5  C   UNL     1      -8.844   3.271   1.895  0.00  0.00    +0.065 A 
ATOM      6  C   UNL     1      -7.512   2.962   1.687  0.00  0.00    +0.167 A 
ATOM      7  F   UNL     1      -6.771   3.707   0.838  0.00  0.00    -0.202 F 
ENDROOT
BRANCH   4   8
ATOM      8  N   UNL     1     -10.952   2.822   2.986  0.00  0.00    -0.269 N 
ATOM      9  C   UNL     1     -11.656   3.458   2.030  0.00  0.00    +0.314 C 
ATOM     10  O   UNL     1     -11.091   3.885   1.042  0.00  0.00    -0.252 OA
ATOM     11  N   UNL     1     -12.987   3.621   2.169  0.00  0.00    -0.208 N 
ATOM     12  C   UNL     1     -13.769   3.262   3.361  0.00  0.00    +0.139 C 
ATOM     13  C   UNL     1     -15.212   3.654   2.987  0.00  0.00    +0.135 C 
ATOM     14  N   UNL     1     -15.089   4.192   1.624  0.00  0.00    -0.254 N 
ATOM     15  C   UNL     1     -13.806   4.141   1.245  0.00  0.00    +0.317 C 
ATOM     16  O   UNL     1     -13.419   4.529   0.160  0.00  0.00    -0.252 OA
ATOM     17  H   UNL     1     -11.378   2.581   3.824  0.00  0.00    +0.156 HD
BRANCH  14  18
ATOM     18  C   UNL     1     -16.145   4.684   0.849  0.00  0.00    +0.038 A 
ATOM     19  C   UNL     1     -15.944   4.979  -0.493  0.00  0.00    +0.023 A 
ATOM     20  C   UNL     1     -16.988   5.464  -1.256  0.00  0.00    +0.002 A 
ATOM     21  C   UNL     1     -18.233   5.657  -0.685  0.00  0.00    +0.000 A 
ATOM     22  C   UNL     1     -18.436   5.365   0.651  0.00  0.00    +0.002 A 
ATOM     23  C   UNL     1     -17.397   4.873   1.418  0.00  0.00    +0.023 A 
ENDBRANCH  14  18
ENDBRANCH   4   8
BRANCH   1  24
ATOM     24  O   UNL     1      -5.630   1.576   2.138  0.00  0.00    -0.452 OA
BRANCH  24  30
ATOM     25  C   UNL     1      -0.780   1.306   2.339  0.00  0.00    +0.057 A 
ATOM     26  C   UNL     1      -1.028   2.471   2.995  0.00  0.00    +0.047 A 
ATOM     27  C   UNL     1      -2.352   2.918   3.156  0.00  0.00    +0.082 A 
ATOM     28  C   UNL     1      -3.344   2.081   2.599  0.00  0.00    +0.080 A 
ATOM     29  S   UNL     1      -2.414   0.749   1.887  0.00  0.00    -0.080 S 
ATOM     30  C   UNL     1      -4.690   2.392   2.679  0.00  0.00    +0.146 A 
ATOM     31  C   UNL     1      -5.050   3.568   3.333  0.00  0.00    +0.067 A 
ATOM     32  C   UNL     1      -4.046   4.361   3.865  0.00  0.00    +0.115 A 
ATOM     33  N   UNL     1      -2.780   4.043   3.775  0.00  0.00    -0.254 NA
BRANCH  25  38
ATOM     34  N   UNL     1       0.703  -0.625   1.655  0.00  0.00    -0.330 N 
ATOM     35  C   UNL     1       2.051  -0.810   1.511  0.00  0.00    +0.107 A 
ATOM     36  C   UNL     1       2.647   0.356   1.836  0.00  0.00    +0.131 A 
ATOM     37  N   UNL     1       1.699   1.237   2.171  0.00  0.00    -0.235 NA
ATOM     38  C   UNL     1       0.518   0.665   2.063  0.00  0.00    +0.147 A 
BRANCH  34  40
ATOM     39  C   UNL     1      -0.879  -1.462  -0.012  0.00  0.00    +0.027 C 
ATOM     40  C   UNL     1      -0.344  -1.621   1.413  0.00  0.00    +0.120 C 
ENDBRANCH  34  40
ENDBRANCH  25  38
ENDBRANCH  24  30
ENDBRANCH   1  24
TORSDOF 6
