REMARK  Name = CHEMBL524453
REMARK  10 active torsions:
REMARK  status: ('A' for Active; 'I' for Inactive)
REMARK    1  A    between atoms: C_1  and  N_2
REMARK    2  A    between atoms: N_2  and  C_3
REMARK    3  A    between atoms: C_6  and  N_9
REMARK    4  A    between atoms: N_9  and  C_10
REMARK    5  A    between atoms: C_10  and  C_25
REMARK    6  A    between atoms: C_15  and  C_21
REMARK    7  A    between atoms: C_21  and  O_23
REMARK    8  A    between atoms: O_23  and  C_24
REMARK    9  A    between atoms: C_31  and  C_33
REMARK   10  A    between atoms: C_33  and  N_34
REMARK                            x       y       z     vdW  Elec       q    Type
REMARK                         _______ _______ _______ _____ _____    ______ ____
ROOT
ATOM      1  C   UNL     1       0.137  -2.324   5.945  0.00  0.00    +0.051 C 
ATOM      2  C   UNL     1      -0.049  -3.004   7.145  0.00  0.00    +0.068 C 
ATOM      3  C   UNL     1      -0.039  -4.465   7.350  0.00  0.00    +0.010 A 
ATOM      4  C   UNL     1       0.142  -5.553   6.497  0.00  0.00    +0.011 A 
ATOM      5  C   UNL     1       0.097  -6.824   6.992  0.00  0.00    +0.016 A 
ATOM      6  C   UNL     1      -0.132  -7.040   8.357  0.00  0.00    +0.061 A 
ATOM      7  C   UNL     1      -0.314  -5.957   9.220  0.00  0.00    +0.039 A 
ATOM      8  C   UNL     1      -0.269  -4.666   8.722  0.00  0.00    +0.042 A 
ATOM      9  N   UNL     1      -0.412  -3.423   9.326  0.00  0.00    -0.281 N 
ATOM     10  C   UNL     1      -0.282  -2.435   8.425  0.00  0.00    +0.251 C 
ATOM     11  O   UNL     1      -0.355  -1.242   8.666  0.00  0.00    -0.270 OA
ATOM     12  H   UNL     1      -0.580  -3.286  10.271  0.00  0.00    +0.155 HD
ENDROOT
BRANCH   1  13
ATOM     13  C   UNL     1       0.239  -0.853   5.939  0.00  0.00    -0.003 A 
ATOM     14  C   UNL     1      -0.532  -0.099   5.050  0.00  0.00    +0.010 A 
ATOM     15  C   UNL     1      -0.431   1.276   5.050  0.00  0.00    +0.001 A 
ATOM     16  C   UNL     1       0.431   1.910   5.928  0.00  0.00    +0.000 A 
ATOM     17  C   UNL     1       1.198   1.170   6.811  0.00  0.00    +0.001 A 
ATOM     18  C   UNL     1       1.103  -0.206   6.827  0.00  0.00    +0.010 A 
ENDBRANCH   1  13
BRANCH   1  19
ATOM     19  N   UNL     1       0.224  -3.021   4.769  0.00  0.00    -0.313 N 
ATOM     20  H   UNL     1      -0.503  -3.600   4.493  0.00  0.00    +0.152 HD
BRANCH  19  24
ATOM     21  C   UNL     1       3.619  -2.655   2.378  0.00  0.00    +0.036 A 
ATOM     22  C   UNL     1       2.512  -3.352   1.911  0.00  0.00    +0.025 A 
ATOM     23  C   UNL     1       1.388  -3.474   2.703  0.00  0.00    +0.025 A 
ATOM     24  C   UNL     1       1.363  -2.898   3.967  0.00  0.00    +0.031 A 
ATOM     25  C   UNL     1       2.470  -2.201   4.434  0.00  0.00    +0.025 A 
ATOM     26  C   UNL     1       3.596  -2.084   3.644  0.00  0.00    +0.025 A 
BRANCH  21  28
ATOM     27  C   UNL     1       5.555  -3.716   1.245  0.00  0.00    +0.138 C 
ATOM     28  N   UNL     1       4.759  -2.531   1.575  0.00  0.00    -0.273 N 
ATOM     29  C   UNL     1       5.124  -1.322   1.104  0.00  0.00    +0.239 C 
ATOM     30  O   UNL     1       4.521  -0.329   1.452  0.00  0.00    -0.273 OA
BRANCH  29  31
ATOM     31  C   UNL     1       6.282  -1.204   0.147  0.00  0.00    +0.218 C 
BRANCH  31  32
ATOM     32  N   UNL     1       6.477   0.203  -0.213  0.00  0.00    -0.328 N 
ATOM     33  C   UNL     1       5.890   0.862  -1.260  0.00  0.00    +0.107 A 
ATOM     34  C   UNL     1       6.343   2.130  -1.224  0.00  0.00    +0.130 A 
ATOM     35  N   UNL     1       7.183   2.241  -0.184  0.00  0.00    -0.244 NA
ATOM     36  C   UNL     1       7.264   1.092   0.429  0.00  0.00    +0.199 A 
ENDBRANCH  31  32
ENDBRANCH  29  31
ENDBRANCH  21  28
ENDBRANCH  19  24
ENDBRANCH   1  19
BRANCH   6  37
ATOM     37  C   UNL     1      -0.181  -8.415   8.884  0.00  0.00    +0.339 C 
ATOM     38  O   UNL     1      -0.379  -8.605  10.068  0.00  0.00    -0.245 OA
BRANCH  37  39
ATOM     39  O   UNL     1      -0.005  -9.462   8.054  0.00  0.00    -0.464 OA
ATOM     40  C   UNL     1      -0.065 -10.767   8.634  0.00  0.00    +0.280 C 
ENDBRANCH  37  39
ENDBRANCH   6  37
TORSDOF 8
