REMARK  Name = CHEMBL204426
REMARK  3 active torsions:
REMARK  status: ('A' for Active; 'I' for Inactive)
REMARK    1  A    between atoms: C_7  and  N_29
REMARK    2  A    between atoms: C_8  and  C_13
REMARK    3  A    between atoms: C_19  and  N_23
REMARK                            x       y       z     vdW  Elec       q    Type
REMARK                         _______ _______ _______ _____ _____    ______ ____
ROOT
ATOM      1  C   UNL     1       2.334  -4.075  -0.015  0.00  0.00    +0.146 A 
ATOM      2  N   UNL     1       3.453  -4.863   0.056  0.00  0.00    -0.338 N 
ATOM      3  H   UNL     1       4.370  -4.555   0.122  0.00  0.00    +0.167 HD
ATOM      4  C   UNL     1       3.028  -6.181   0.014  0.00  0.00    +0.067 A 
ATOM      5  C   UNL     1       3.686  -7.402   0.049  0.00  0.00    +0.029 A 
ATOM      6  C   UNL     1       2.964  -8.575  -0.012  0.00  0.00    +0.025 A 
ATOM      7  C   UNL     1       1.575  -8.543  -0.109  0.00  0.00    +0.032 A 
ATOM      8  C   UNL     1       0.904  -7.335  -0.144  0.00  0.00    +0.053 A 
ATOM      9  C   UNL     1       1.627  -6.139  -0.083  0.00  0.00    +0.091 A 
ATOM     10  N   UNL     1       1.263  -4.833  -0.091  0.00  0.00    -0.227 NA
ENDROOT
BRANCH   1  18
ATOM     11  C   UNL     1       0.080   1.690   0.116  0.00  0.00    +0.001 A 
ATOM     12  C   UNL     1       1.313   2.326   0.080  0.00  0.00    +0.002 A 
ATOM     13  C   UNL     1       2.481   1.594   0.033  0.00  0.00    +0.026 A 
ATOM     14  C   UNL     1       2.426   0.204   0.022  0.00  0.00    +0.051 A 
ATOM     15  C   UNL     1       1.174  -0.436   0.059  0.00  0.00    +0.020 A 
ATOM     16  C   UNL     1       0.003   0.325   0.106  0.00  0.00    +0.012 A 
ATOM     17  C   UNL     1       1.124  -1.903   0.046  0.00  0.00    +0.050 A 
ATOM     18  C   UNL     1       2.331  -2.603  -0.002  0.00  0.00    +0.103 A 
ATOM     19  C   UNL     1       3.552  -1.889  -0.037  0.00  0.00    +0.262 A 
ATOM     20  O   UNL     1       4.602  -2.508  -0.079  0.00  0.00    -0.267 OA
ATOM     21  N   UNL     1       3.584  -0.546  -0.025  0.00  0.00    -0.321 N 
ATOM     22  H   UNL     1       4.441  -0.093  -0.050  0.00  0.00    +0.169 HD
BRANCH  17  23
ATOM     23  N   UNL     1      -0.078  -2.569   0.082  0.00  0.00    -0.357 N 
ATOM     24  H   UNL     1      -0.904  -2.073   0.193  0.00  0.00    +0.142 HD
ATOM     25  H   UNL     1      -0.100  -3.535  -0.004  0.00  0.00    +0.142 HD
ENDBRANCH  17  23
ENDBRANCH   1  18
BRANCH   7  26
ATOM     26  N   UNL     1       0.854  -9.741  -0.171  0.00  0.00    -0.325 N 
ATOM     27  C   UNL     1      -0.599  -9.739  -0.407  0.00  0.00    +0.133 C 
ATOM     28  C   UNL     1      -0.903 -10.713  -1.551  0.00  0.00    +0.178 C 
ATOM     29  O   UNL     1      -0.308 -11.981  -1.262  0.00  0.00    -0.377 OA
ATOM     30  C   UNL     1       1.118 -11.950  -1.166  0.00  0.00    +0.178 C 
ATOM     31  C   UNL     1       1.527 -11.039  -0.008  0.00  0.00    +0.133 C 
ENDBRANCH   7  26
TORSDOF 3
