REMARK  Name = CHEMBL118748
REMARK  7 active torsions:
REMARK  status: ('A' for Active; 'I' for Inactive)
REMARK    1  A    between atoms: C_8  and  C_12
REMARK    2  A    between atoms: C_16  and  O_22
REMARK    3  A    between atoms: O_22  and  C_23
REMARK    4  A    between atoms: C_23  and  C_24
REMARK    5  A    between atoms: C_24  and  C_25
REMARK    6  A    between atoms: C_25  and  N_26
REMARK    7  A    between atoms: C_29  and  C_32
REMARK                            x       y       z     vdW  Elec       q    Type
REMARK                         _______ _______ _______ _____ _____    ______ ____
ROOT
ATOM      1  C   UNL     1       2.538  -4.224  -0.044  0.00  0.00    +0.053 A 
ATOM      2  C   UNL     1       3.045  -4.992   0.955  0.00  0.00    +0.036 A 
ATOM      3  C   UNL     1       2.909  -6.385   0.533  0.00  0.00    +0.004 A 
ATOM      4  C   UNL     1       3.242  -7.609   1.120  0.00  0.00    +0.055 A 
ATOM      5  C   UNL     1       2.977  -8.784   0.445  0.00  0.00    +0.121 A 
ATOM      6  C   UNL     1       2.381  -8.751  -0.813  0.00  0.00    +0.047 A 
ATOM      7  C   UNL     1       2.049  -7.551  -1.402  0.00  0.00    +0.030 A 
ATOM      8  C   UNL     1       2.307  -6.356  -0.739  0.00  0.00    +0.047 A 
ATOM      9  N   UNL     1       2.087  -5.032  -1.062  0.00  0.00    -0.354 N 
ATOM     10  H   UNL     1       1.679  -4.719  -1.885  0.00  0.00    +0.166 HD
ENDROOT
BRANCH   1  18
ATOM     11  C   UNL     1      -0.016   1.361   0.009  0.00  0.00    +0.001 A 
ATOM     12  C   UNL     1       1.169   2.083   0.002  0.00  0.00    +0.002 A 
ATOM     13  C   UNL     1       2.385   1.435  -0.013  0.00  0.00    +0.026 A 
ATOM     14  C   UNL     1       2.431   0.043  -0.021  0.00  0.00    +0.049 A 
ATOM     15  C   UNL     1       1.228  -0.686  -0.013  0.00  0.00    -0.001 A 
ATOM     16  C   UNL     1       0.002  -0.004   0.002  0.00  0.00    +0.010 A 
ATOM     17  C   UNL     1       1.257  -2.104  -0.021  0.00  0.00    +0.025 A 
ATOM     18  C   UNL     1       2.476  -2.749  -0.036  0.00  0.00    +0.063 A 
ATOM     19  C   UNL     1       3.709  -1.954  -0.044  0.00  0.00    +0.258 A 
ATOM     20  N   UNL     1       3.647  -0.609  -0.035  0.00  0.00    -0.322 N 
ATOM     21  O   UNL     1       4.792  -2.512  -0.057  0.00  0.00    -0.267 OA
ATOM     22  H   UNL     1       4.467  -0.092  -0.040  0.00  0.00    +0.169 HD
ENDBRANCH   1  18
BRANCH   5  23
ATOM     23  O   UNL     1       3.299  -9.977   1.011  0.00  0.00    -0.492 OA
BRANCH  23  24
ATOM     24  C   UNL     1       2.997 -11.155   0.259  0.00  0.00    +0.227 C 
BRANCH  24  25
ATOM     25  C   UNL     1       3.428 -12.390   1.052  0.00  0.00    +0.022 C 
BRANCH  25  26
ATOM     26  C   UNL     1       3.105 -13.651   0.246  0.00  0.00    -0.076 C 
BRANCH  26  27
ATOM     27  N   UNL     1       3.519 -14.837   1.007  0.00  0.00    +0.380 N 
ATOM     28  C   UNL     1       4.978 -14.831   1.165  0.00  0.00    -0.078 C 
ATOM     29  C   UNL     1       5.406 -16.021   2.026  0.00  0.00    -0.004 C 
ATOM     30  C   UNL     1       4.971 -17.321   1.343  0.00  0.00    +0.099 C 
ATOM     31  C   UNL     1       3.457 -17.285   1.116  0.00  0.00    -0.004 C 
ATOM     32  C   UNL     1       3.101 -16.047   0.289  0.00  0.00    -0.078 C 
ATOM     33  H   UNL     1       3.083 -14.821   1.917  0.00  0.00    -0.082 HD
BRANCH  30  34
ATOM     34  C   UNL     1       5.321 -18.494   2.222  0.00  0.00    +0.359 C 
ATOM     35  O   UNL     1       4.639 -19.505   2.190  0.00  0.00    -0.246 OA
ATOM     36  O   UNL     1       6.285 -18.433   2.966  0.00  0.00    -0.246 OA
ENDBRANCH  30  34
ENDBRANCH  26  27
ENDBRANCH  25  26
ENDBRANCH  24  25
ENDBRANCH  23  24
ENDBRANCH   5  23
TORSDOF 7
