REMARK  Name = CHEMBL225278
REMARK  8 active torsions:
REMARK  status: ('A' for Active; 'I' for Inactive)
REMARK    1  A    between atoms: C_1  and  N_2
REMARK    2  A    between atoms: N_5  and  C_9
REMARK    3  A    between atoms: C_9  and  C_10
REMARK    4  A    between atoms: C_22  and  C_23
REMARK    5  A    between atoms: C_25  and  C_28
REMARK    6  A    between atoms: C_29  and  C_30
REMARK    7  A    between atoms: C_30  and  O_31
REMARK    8  A    between atoms: O_31  and  C_32
REMARK                            x       y       z     vdW  Elec       q    Type
REMARK                         _______ _______ _______ _____ _____    ______ ____
ROOT
ATOM      1  C   UNL     1       1.145  -4.807   1.035  0.00  0.00    -0.064 A 
ATOM      2  C   UNL     1       2.459  -4.907   0.615  0.00  0.00    +0.002 A 
ATOM      3  C   UNL     1       3.414  -5.463   1.440  0.00  0.00    +0.010 A 
ATOM      4  C   UNL     1       3.054  -5.928   2.707  0.00  0.00    +0.004 A 
ATOM      5  C   UNL     1       1.726  -5.822   3.121  0.00  0.00    -0.034 A 
ATOM      6  C   UNL     1       0.781  -5.261   2.291  0.00  0.00    +0.006 A 
ATOM      7  C   UNL     1       1.651  -6.401   4.512  0.00  0.00    +0.075 C 
ATOM      8  C   UNL     1       3.054  -6.844   4.849  0.00  0.00    +0.010 A 
ATOM      9  C   UNL     1       3.852  -6.557   3.783  0.00  0.00    +0.070 A 
ATOM     10  N   UNL     1       5.117  -6.963   4.101  0.00  0.00    -0.276 N 
ATOM     11  H   UNL     1       5.900  -6.887   3.534  0.00  0.00    +0.189 HD
ATOM     12  N   UNL     1       5.085  -7.508   5.391  0.00  0.00    -0.173 NA
ATOM     13  C   UNL     1       3.850  -7.437   5.841  0.00  0.00    +0.097 A 
ENDROOT
BRANCH  13  14
ATOM     14  C   UNL     1       3.381  -7.905   7.170  0.00  0.00    +0.011 A 
ATOM     15  C   UNL     1       3.937  -9.029   7.761  0.00  0.00    +0.034 A 
ATOM     16  C   UNL     1       3.474  -9.424   8.987  0.00  0.00    +0.063 A 
ATOM     17  S   UNL     1       2.226  -8.195   9.331  0.00  0.00    -0.088 S 
ATOM     18  C   UNL     1       2.394  -7.231   7.838  0.00  0.00    +0.056 A 
BRANCH  16  19
ATOM     19  C   UNL     1       3.885 -10.537   9.788  0.00  0.00    -0.056 C 
ATOM     20  C   UNL     1       4.222 -11.450  10.445  0.00  0.00    -0.056 C 
BRANCH  20  21
ATOM     21  C   UNL     1       4.645 -12.595  11.268  0.00  0.00    +0.318 C 
BRANCH  21  22
ATOM     22  O   UNL     1       3.883 -12.619  12.477  0.00  0.00    -0.480 OA
BRANCH  22  23
ATOM     23  C   UNL     1       4.152 -13.621  13.355  0.00  0.00    +0.122 A 
ATOM     24  C   UNL     1       5.132 -14.558  13.062  0.00  0.00    +0.046 A 
ATOM     25  C   UNL     1       5.403 -15.575  13.957  0.00  0.00    +0.004 A 
ATOM     26  C   UNL     1       4.698 -15.660  15.143  0.00  0.00    +0.000 A 
ATOM     27  C   UNL     1       3.720 -14.728  15.438  0.00  0.00    +0.004 A 
ATOM     28  C   UNL     1       3.450 -13.705  14.549  0.00  0.00    +0.046 A 
ENDBRANCH  22  23
ENDBRANCH  21  22
ENDBRANCH  20  21
ENDBRANCH  16  19
ENDBRANCH  13  14
BRANCH   1  29
ATOM     29  C   UNL     1       0.109  -4.198   0.126  0.00  0.00    -0.042 C 
BRANCH  29  34
ATOM     30  C   UNL     1      -0.018   1.461   0.010  0.00  0.00    +0.132 C 
ATOM     31  N   UNL     1       0.002  -0.004   0.002  0.00  0.00    -0.308 N 
ATOM     32  C   UNL     1      -1.270  -0.723   0.004  0.00  0.00    +0.089 C 
ATOM     33  C   UNL     1      -1.050  -2.171  -0.438  0.00  0.00    -0.058 C 
ATOM     34  N   UNL     1       0.042  -2.750   0.361  0.00  0.00    +0.389 N 
ATOM     35  C   UNL     1       1.308  -2.127  -0.044  0.00  0.00    +0.019 C 
ATOM     36  C   UNL     1       1.184  -0.630  -0.013  0.00  0.00    +0.199 C 
ATOM     37  O   UNL     1       2.197   0.037   0.005  0.00  0.00    -0.278 OA
ATOM     38  H   UNL     1      -0.124  -2.572   1.340  0.00  0.00    -0.081 HD
ENDBRANCH  29  34
ENDBRANCH   1  29
TORSDOF 7
