REMARK  Name = CHEMBL365064
REMARK  3 active torsions:
REMARK  status: ('A' for Active; 'I' for Inactive)
REMARK    1  A    between atoms: C_4  and  C_7
REMARK    2  A    between atoms: C_16  and  C_17
REMARK    3  A    between atoms: C_19  and  C_24
REMARK                            x       y       z     vdW  Elec       q    Type
REMARK                         _______ _______ _______ _____ _____    ______ ____
ROOT
ATOM      1  C   UNL     1       3.804  -0.609  -0.101  0.00  0.00    +0.015 A 
ATOM      2  C   UNL     1       4.274  -1.569  -1.102  0.00  0.00    +0.008 A 
ATOM      3  C   UNL     1       3.837  -1.911  -2.386  0.00  0.00    +0.010 A 
ATOM      4  C   UNL     1       4.498  -2.872  -3.095  0.00  0.00    +0.001 A 
ATOM      5  C   UNL     1       5.604  -3.514  -2.551  0.00  0.00    +0.002 A 
ATOM      6  C   UNL     1       6.053  -3.194  -1.289  0.00  0.00    +0.026 A 
ATOM      7  C   UNL     1       5.394  -2.216  -0.545  0.00  0.00    +0.047 A 
ATOM      8  N   UNL     1       5.609  -1.699   0.712  0.00  0.00    -0.354 N 
ATOM      9  H   UNL     1       6.321  -1.974   1.311  0.00  0.00    +0.166 HD
ATOM     10  C   UNL     1       4.666  -0.729   0.994  0.00  0.00    +0.049 A 
ENDROOT
BRANCH  10  11
ATOM     11  C   UNL     1       4.586   0.010   2.179  0.00  0.00    +0.042 C 
ATOM     12  C   UNL     1       5.755   0.372   2.858  0.00  0.00    +0.074 C 
ATOM     13  C   UNL     1       5.882   1.001   4.185  0.00  0.00    +0.125 C 
ATOM     14  N   UNL     1       7.182   1.143   4.386  0.00  0.00    -0.143 NA
ATOM     15  N   UNL     1       7.862   0.702   3.395  0.00  0.00    -0.105 NA
ATOM     16  C   UNL     1       7.103   0.216   2.434  0.00  0.00    +0.298 C 
ATOM     17  O   UNL     1       7.527  -0.327   1.264  0.00  0.00    -0.264 OA
BRANCH  13  18
ATOM     18  C   UNL     1       4.788   1.391   5.099  0.00  0.00    +0.110 A 
ATOM     19  C   UNL     1       5.080   1.987   6.329  0.00  0.00    +0.140 A 
ATOM     20  N   UNL     1       4.098   2.332   7.140  0.00  0.00    -0.260 NA
ATOM     21  C   UNL     1       2.841   2.116   6.791  0.00  0.00    +0.130 A 
ATOM     22  C   UNL     1       2.547   1.526   5.574  0.00  0.00    +0.131 A 
ATOM     23  N   UNL     1       3.520   1.181   4.751  0.00  0.00    -0.250 NA
ENDBRANCH  13  18
ENDBRANCH  10  11
BRANCH   1  27
ATOM     24  C   UNL     1       0.493   2.025  -0.458  0.00  0.00    +0.000 A 
ATOM     25  C   UNL     1       1.774   2.539  -0.364  0.00  0.00    +0.001 A 
ATOM     26  C   UNL     1       2.855   1.689  -0.248  0.00  0.00    +0.008 A 
ATOM     27  C   UNL     1       2.653   0.307  -0.224  0.00  0.00    -0.015 A 
ATOM     28  C   UNL     1       1.355  -0.205  -0.319  0.00  0.00    +0.008 A 
ATOM     29  C   UNL     1       0.285   0.657  -0.435  0.00  0.00    +0.001 A 
ENDBRANCH   1  27
TORSDOF 3
