REMARK  Name = CHEMBL1202477
REMARK  9 active torsions:
REMARK  status: ('A' for Active; 'I' for Inactive)
REMARK    1  A    between atoms: C_1  and  N_2
REMARK    2  A    between atoms: N_5  and  C_8
REMARK    3  A    between atoms: C_8  and  C_9
REMARK    4  A    between atoms: C_9  and  C_10
REMARK    5  A    between atoms: C_10  and  O_11
REMARK    6  A    between atoms: O_11  and  C_12
REMARK    7  A    between atoms: C_17  and  O_18
REMARK    8  A    between atoms: O_18  and  C_19
REMARK    9  A    between atoms: N_24  and  C_25
REMARK                            x       y       z     vdW  Elec       q    Type
REMARK                         _______ _______ _______ _____ _____    ______ ____
ROOT
ATOM      1  C   UNL     1       1.524  -7.892   3.756  0.00  0.00    +0.164 A 
ATOM      2  C   UNL     1       1.192  -8.754   2.734  0.00  0.00    +0.078 A 
ATOM      3  C   UNL     1       1.015 -10.115   3.010  0.00  0.00    +0.080 A 
ATOM      4  C   UNL     1       1.180 -10.584   4.337  0.00  0.00    +0.044 A 
ATOM      5  C   UNL     1       1.517  -9.687   5.357  0.00  0.00    +0.062 A 
ATOM      6  C   UNL     1       1.691  -8.364   5.065  0.00  0.00    +0.162 A 
ATOM      7  C   UNL     1       0.994 -11.965   4.584  0.00  0.00    +0.134 A 
ATOM      8  N   UNL     1       0.676 -12.749   3.562  0.00  0.00    -0.220 NA
ATOM      9  C   UNL     1       0.533 -12.266   2.339  0.00  0.00    +0.223 A 
ATOM     10  N   UNL     1       0.692 -10.996   2.050  0.00  0.00    -0.235 NA
ATOM     11  N   UNL     1       1.141 -12.483   5.855  0.00  0.00    -0.297 N 
ATOM     12  H   UNL     1       1.281 -11.888   6.608  0.00  0.00    +0.154 HD
ENDROOT
BRANCH  11  13
ATOM     13  C   UNL     1       1.089 -13.867   6.058  0.00  0.00    +0.068 A 
ATOM     14  C   UNL     1       1.281 -14.734   4.990  0.00  0.00    +0.027 A 
ATOM     15  C   UNL     1       1.228 -16.099   5.193  0.00  0.00    +0.017 A 
ATOM     16  C   UNL     1       0.985 -16.605   6.457  0.00  0.00    +0.021 A 
ATOM     17  C   UNL     1       0.793 -15.745   7.524  0.00  0.00    +0.055 A 
ATOM     18  C   UNL     1       0.850 -14.377   7.329  0.00  0.00    +0.145 A 
ATOM     19  F   UNL     1       0.668 -13.537   8.372  0.00  0.00    -0.204 F 
ATOM     20 BR   UNL     1       0.913 -18.475   6.729  0.00  0.00    -0.050 Br
ENDBRANCH  11  13
BRANCH   6  21
ATOM     21  O   UNL     1       2.024  -7.495   6.056  0.00  0.00    -0.491 OA
ATOM     22  C   UNL     1       2.180  -8.037   7.369  0.00  0.00    +0.277 C 
ENDBRANCH   6  21
BRANCH   1  23
ATOM     23  O   UNL     1       1.696  -6.571   3.491  0.00  0.00    -0.488 OA
BRANCH  23  24
ATOM     24  C   UNL     1       1.512  -6.151   2.137  0.00  0.00    +0.230 C 
BRANCH  24  25
ATOM     25  C   UNL     1       1.747  -4.643   2.035  0.00  0.00    +0.056 C 
BRANCH  25  26
ATOM     26  C   UNL     1       1.550  -4.193   0.586  0.00  0.00    +0.087 C 
BRANCH  26  31
ATOM     27  C   UNL     1       3.162   1.056  -0.676  0.00  0.00    -0.096 C 
ATOM     28  N   UNL     1       2.973  -0.400  -0.619  0.00  0.00    +0.379 N 
ATOM     29  C   UNL     1       1.561  -0.719  -0.871  0.00  0.00    -0.064 C 
ATOM     30  C   UNL     1       1.367  -2.237  -0.830  0.00  0.00    +0.066 C 
ATOM     31  N   UNL     1       1.775  -2.745   0.487  0.00  0.00    -0.306 NA
ATOM     32  C   UNL     1       3.179  -2.410   0.764  0.00  0.00    +0.066 C 
ATOM     33  C   UNL     1       3.359  -0.892   0.710  0.00  0.00    -0.064 C 
ATOM     34  H   UNL     1       3.548  -0.841  -1.321  0.00  0.00    -0.082 HD
ENDBRANCH  26  31
ENDBRANCH  25  26
ENDBRANCH  24  25
ENDBRANCH  23  24
ENDBRANCH   1  23
TORSDOF 7
