REMARK  Name = CHEMBL427837
REMARK  10 active torsions:
REMARK  status: ('A' for Active; 'I' for Inactive)
REMARK    1  A    between atoms: C_1  and  N_2
REMARK    2  A    between atoms: N_5  and  C_8
REMARK    3  A    between atoms: C_8  and  C_9
REMARK    4  A    between atoms: C_11  and  N_16
REMARK    5  A    between atoms: C_23  and  O_27
REMARK    6  A    between atoms: O_27  and  C_28
REMARK    7  A    between atoms: C_35  and  O_40
REMARK    8  A    between atoms: C_36  and  O_38
REMARK    9  A    between atoms: O_38  and  C_39
REMARK   10  A    between atoms: O_40  and  C_41
REMARK                            x       y       z     vdW  Elec       q    Type
REMARK                         _______ _______ _______ _____ _____    ______ ____
ROOT
ATOM      1  N   UNL     1      -1.113  -5.469   5.655  0.00  0.00    -0.285 N 
ATOM      2  C   UNL     1      -0.556  -5.952   6.822  0.00  0.00    +0.198 A 
ATOM      3  N   UNL     1       0.774  -5.916   7.130  0.00  0.00    -0.326 N 
ATOM      4  H   UNL     1       1.483  -5.553   6.577  0.00  0.00    +0.169 HD
ATOM      5  C   UNL     1       0.921  -6.496   8.381  0.00  0.00    +0.068 A 
ATOM      6  C   UNL     1       2.010  -6.740   9.204  0.00  0.00    +0.031 A 
ATOM      7  C   UNL     1       1.826  -7.352  10.427  0.00  0.00    +0.048 A 
ATOM      8  C   UNL     1       0.551  -7.726  10.841  0.00  0.00    +0.131 A 
ATOM      9  C   UNL     1      -0.544  -7.489  10.032  0.00  0.00    +0.076 A 
ATOM     10  C   UNL     1      -0.369  -6.870   8.792  0.00  0.00    +0.094 A 
ATOM     11  N   UNL     1      -1.225  -6.507   7.802  0.00  0.00    -0.214 NA
ATOM     12  H   UNL     1      -0.558  -5.003   5.010  0.00  0.00    +0.155 HD
ENDROOT
BRANCH   1  15
ATOM     13  C   UNL     1      -4.504  -4.942   4.338  0.00  0.00    -0.013 A 
ATOM     14  C   UNL     1      -3.158  -4.759   4.585  0.00  0.00    +0.029 A 
ATOM     15  C   UNL     1      -2.476  -5.651   5.403  0.00  0.00    +0.034 A 
ATOM     16  C   UNL     1      -3.151  -6.724   5.970  0.00  0.00    +0.025 A 
ATOM     17  C   UNL     1      -4.497  -6.902   5.720  0.00  0.00    +0.022 A 
ATOM     18  C   UNL     1      -5.175  -6.009   4.908  0.00  0.00    +0.045 A 
ATOM     19 CL   UNL     1      -6.869  -6.232   4.600  0.00  0.00    -0.083 Cl
BRANCH  13  20
ATOM     20  C   UNL     1      -5.245  -3.974   3.451  0.00  0.00    +0.121 C 
BRANCH  20  25
ATOM     21  C   UNL     1      -7.684   0.394   6.041  0.00  0.00    -0.096 C 
ATOM     22  N   UNL     1      -6.868  -0.479   5.188  0.00  0.00    +0.379 N 
ATOM     23  C   UNL     1      -7.747  -1.306   4.351  0.00  0.00    -0.064 C 
ATOM     24  C   UNL     1      -6.896  -2.203   3.448  0.00  0.00    +0.066 C 
ATOM     25  N   UNL     1      -6.037  -3.057   4.280  0.00  0.00    -0.302 NA
ATOM     26  C   UNL     1      -5.169  -2.243   5.142  0.00  0.00    +0.066 C 
ATOM     27  C   UNL     1      -6.033  -1.346   6.031  0.00  0.00    -0.064 C 
ATOM     28  H   UNL     1      -6.276   0.086   4.597  0.00  0.00    -0.082 HD
ENDBRANCH  20  25
ENDBRANCH  13  20
ENDBRANCH   1  15
BRANCH   8  29
ATOM     29  O   UNL     1       0.382  -8.328  12.048  0.00  0.00    -0.455 OA
BRANCH  29  30
ATOM     30  C   UNL     1       0.450  -7.556  13.160  0.00  0.00    +0.139 A 
ATOM     31  C   UNL     1       0.571  -6.180  13.066  0.00  0.00    +0.064 A 
ATOM     32  C   UNL     1       0.638  -5.415  14.223  0.00  0.00    +0.086 A 
ATOM     33  N   UNL     1       0.590  -5.958  15.417  0.00  0.00    -0.360 N 
ATOM     34  C   UNL     1       0.473  -7.281  15.581  0.00  0.00    +0.054 A 
ATOM     35  C   UNL     1       0.393  -8.129  14.450  0.00  0.00    +0.044 A 
ATOM     36  C   UNL     1       0.265  -9.516  14.625  0.00  0.00    +0.063 A 
ATOM     37  C   UNL     1       0.213 -10.035  15.886  0.00  0.00    +0.162 A 
ATOM     38  C   UNL     1       0.287  -9.197  17.008  0.00  0.00    +0.163 A 
ATOM     39  C   UNL     1       0.423  -7.847  16.866  0.00  0.00    +0.075 A 
ATOM     40  H   UNL     1       0.640  -5.387  16.199  0.00  0.00    +0.165 HD
BRANCH  38  41
ATOM     41  O   UNL     1       0.233  -9.739  18.253  0.00  0.00    -0.491 OA
ATOM     42  C   UNL     1       0.313  -8.835  19.358  0.00  0.00    +0.277 C 
ENDBRANCH  38  41
BRANCH  37  43
ATOM     43  O   UNL     1       0.089 -11.379  16.055  0.00  0.00    -0.491 OA
ATOM     44  C   UNL     1       0.019 -12.178  14.873  0.00  0.00    +0.277 C 
ENDBRANCH  37  43
ENDBRANCH  29  30
ENDBRANCH   8  29
TORSDOF 7
