REMARK  Name = CHEMBL411520
REMARK  7 active torsions:
REMARK  status: ('A' for Active; 'I' for Inactive)
REMARK    1  A    between atoms: C_1  and  C_2
REMARK    2  A    between atoms: C_2  and  C_3
REMARK    3  A    between atoms: C_2  and  C_4
REMARK    4  A    between atoms: C_4  and  N_5
REMARK    5  A    between atoms: C_9  and  C_30
REMARK    6  A    between atoms: N_24  and  C_29
REMARK    7  A    between atoms: C_30  and  C_32
REMARK                            x       y       z     vdW  Elec       q    Type
REMARK                         _______ _______ _______ _____ _____    ______ ____
ROOT
ATOM      1  N   UNL     1       2.007  -0.035  -0.986  0.00  0.00    -0.339 N 
ATOM      2  C   UNL     1       2.396   1.227  -1.340  0.00  0.00    +0.050 A 
ATOM      3  C   UNL     1       1.670   2.283  -1.899  0.00  0.00    +0.027 A 
ATOM      4  C   UNL     1       2.345   3.449  -2.148  0.00  0.00    +0.014 A 
ATOM      5  C   UNL     1       3.705   3.599  -1.863  0.00  0.00    +0.023 A 
ATOM      6  C   UNL     1       4.453   2.555  -1.301  0.00  0.00    +0.022 A 
ATOM      7  C   UNL     1       3.772   1.371  -1.044  0.00  0.00    +0.009 A 
ATOM      8  C   UNL     1       4.213   0.097  -0.469  0.00  0.00    +0.013 A 
ATOM      9  C   UNL     1       3.076  -0.739  -0.459  0.00  0.00    +0.054 A 
ATOM     10  C   UNL     1       3.170  -2.033   0.047  0.00  0.00    -0.014 A 
ATOM     11  C   UNL     1       4.398  -2.498   0.506  0.00  0.00    +0.003 A 
ATOM     12  C   UNL     1       5.527  -1.663   0.527  0.00  0.00    +0.050 A 
ATOM     13  C   UNL     1       5.422  -0.365   0.025  0.00  0.00    -0.008 A 
ATOM     14  C   UNL     1       6.785   0.264   0.178  0.00  0.00    +0.141 C 
ATOM     15  N   UNL     1       7.643  -0.764   0.779  0.00  0.00    -0.307 N 
ATOM     16  C   UNL     1       6.909  -1.870   0.986  0.00  0.00    +0.245 C 
ATOM     17  O   UNL     1       7.331  -2.901   1.473  0.00  0.00    -0.270 OA
ATOM     18  C   UNL     1       4.476  -3.916   0.921  0.00  0.00    +0.024 A 
ATOM     19  C   UNL     1       5.420  -4.606   1.596  0.00  0.00    +0.116 A 
ATOM     20  N   UNL     1       4.976  -5.877   1.725  0.00  0.00    -0.274 N 
ATOM     21  N   UNL     1       3.720  -5.972   1.103  0.00  0.00    -0.176 NA
ATOM     22  C   UNL     1       3.417  -4.814   0.613  0.00  0.00    +0.071 A 
ATOM     23  C   UNL     1       2.214  -4.363  -0.175  0.00  0.00    +0.062 C 
ATOM     24  C   UNL     1       1.936  -2.890   0.117  0.00  0.00    +0.044 C 
ATOM     25  C   UNL     1       5.683  -6.968   2.399  0.00  0.00    +0.172 C 
ATOM     26  H   UNL     1       8.581  -0.657   1.002  0.00  0.00    +0.149 HD
ENDROOT
BRANCH   5  27
ATOM     27  C   UNL     1       4.368   4.884  -2.160  0.00  0.00    +0.196 C 
ATOM     28  O   UNL     1       3.724   5.915  -2.159  0.00  0.00    -0.287 OA
BRANCH  27  29
ATOM     29  C   UNL     1       5.811   4.917  -2.457  0.00  0.00    +0.060 A 
ATOM     30  C   UNL     1       6.653   6.108  -2.643  0.00  0.00    +0.053 A 
ATOM     31  C   UNL     1       7.889   5.650  -2.892  0.00  0.00    +0.195 A 
ATOM     32  O   UNL     1       7.874   4.308  -2.874  0.00  0.00    -0.470 OA
ATOM     33  C   UNL     1       6.647   3.848  -2.611  0.00  0.00    +0.206 A 
ENDBRANCH  27  29
ENDBRANCH   5  27
BRANCH   1  34
ATOM     34  C   UNL     1       0.649  -0.566  -1.138  0.00  0.00    +0.125 C 
BRANCH  34  36
ATOM     35  C   UNL     1       1.453  -2.345  -2.697  0.00  0.00    +0.009 C 
ATOM     36  C   UNL     1       0.490  -1.167  -2.536  0.00  0.00    +0.003 C 
ATOM     37  C   UNL     1      -0.948  -1.655  -2.721  0.00  0.00    +0.009 C 
ENDBRANCH  34  36
ENDBRANCH   1  34
TORSDOF 4
