REMARK  Name = CHEMBL397497
REMARK  6 active torsions:
REMARK  status: ('A' for Active; 'I' for Inactive)
REMARK    1  A    between atoms: C_1  and  N_2
REMARK    2  A    between atoms: N_5  and  C_8
REMARK    3  A    between atoms: C_8  and  C_9
REMARK    4  A    between atoms: C_11  and  N_16
REMARK    5  A    between atoms: C_22  and  O_26
REMARK    6  A    between atoms: O_26  and  C_27
REMARK                            x       y       z     vdW  Elec       q    Type
REMARK                         _______ _______ _______ _____ _____    ______ ____
ROOT
ATOM      1  N   UNL     1      -1.677  -6.050   5.300  0.00  0.00    -0.285 N 
ATOM      2  C   UNL     1      -2.995  -6.226   4.925  0.00  0.00    +0.198 A 
ATOM      3  N   UNL     1      -3.523  -5.793   3.808  0.00  0.00    -0.214 NA
ATOM      4  C   UNL     1      -4.837  -6.139   3.760  0.00  0.00    +0.091 A 
ATOM      5  C   UNL     1      -5.849  -5.934   2.818  0.00  0.00    +0.033 A 
ATOM      6  C   UNL     1      -7.116  -6.416   3.058  0.00  0.00    +0.048 A 
ATOM      7  C   UNL     1      -7.397  -7.107   4.232  0.00  0.00    +0.131 A 
ATOM      8  C   UNL     1      -6.404  -7.317   5.174  0.00  0.00    +0.074 A 
ATOM      9  C   UNL     1      -5.124  -6.837   4.944  0.00  0.00    +0.071 A 
ATOM     10  N   UNL     1      -3.940  -6.882   5.661  0.00  0.00    -0.326 N 
ATOM     11  H   UNL     1      -1.347  -6.457   6.116  0.00  0.00    +0.155 HD
ATOM     12  H   UNL     1      -3.807  -7.301   6.526  0.00  0.00    +0.169 HD
ENDROOT
BRANCH   1  15
ATOM     13  C   UNL     1      -0.468  -3.466   2.982  0.00  0.00    -0.013 A 
ATOM     14  C   UNL     1      -1.318  -4.218   3.769  0.00  0.00    +0.029 A 
ATOM     15  C   UNL     1      -0.819  -5.287   4.502  0.00  0.00    +0.034 A 
ATOM     16  C   UNL     1       0.534  -5.596   4.442  0.00  0.00    +0.025 A 
ATOM     17  C   UNL     1       1.379  -4.840   3.654  0.00  0.00    +0.022 A 
ATOM     18  C   UNL     1       0.878  -3.779   2.920  0.00  0.00    +0.045 A 
ATOM     19 CL   UNL     1       1.943  -2.835   1.924  0.00  0.00    -0.083 Cl
BRANCH  13  20
ATOM     20  C   UNL     1      -1.008  -2.306   2.186  0.00  0.00    +0.121 C 
BRANCH  20  25
ATOM     21  C   UNL     1      -1.839  -3.072  -3.334  0.00  0.00    -0.096 C 
ATOM     22  N   UNL     1      -1.965  -2.740  -1.909  0.00  0.00    +0.379 N 
ATOM     23  C   UNL     1      -0.932  -1.762  -1.541  0.00  0.00    -0.064 C 
ATOM     24  C   UNL     1      -1.075  -1.403  -0.060  0.00  0.00    +0.066 C 
ATOM     25  N   UNL     1      -0.934  -2.619   0.752  0.00  0.00    -0.302 NA
ATOM     26  C   UNL     1      -1.946  -3.617   0.378  0.00  0.00    +0.066 C 
ATOM     27  C   UNL     1      -1.796  -3.959  -1.106  0.00  0.00    -0.064 C 
ATOM     28  H   UNL     1      -2.878  -2.347  -1.734  0.00  0.00    -0.082 HD
ENDBRANCH  20  25
ENDBRANCH  13  20
ENDBRANCH   1  15
BRANCH   7  29
ATOM     29  O   UNL     1      -8.653  -7.577   4.456  0.00  0.00    -0.455 OA
BRANCH  29  30
ATOM     30  C   UNL     1      -9.454  -6.877   5.298  0.00  0.00    +0.141 A 
ATOM     31  C   UNL     1      -9.028  -5.682   5.864  0.00  0.00    +0.066 A 
ATOM     32  C   UNL     1      -9.875  -4.997   6.718  0.00  0.00    +0.117 A 
ATOM     33  N   UNL     1     -11.077  -5.449   7.009  0.00  0.00    -0.237 NA
ATOM     34  C   UNL     1     -11.540  -6.584   6.499  0.00  0.00    +0.142 A 
ATOM     35  C   UNL     1     -10.741  -7.334   5.618  0.00  0.00    +0.061 A 
ATOM     36  C   UNL     1     -11.534  -8.503   5.238  0.00  0.00    +0.032 A 
ATOM     37  C   UNL     1     -12.712  -8.398   5.873  0.00  0.00    +0.085 A 
ATOM     38  N   UNL     1     -12.728  -7.261   6.638  0.00  0.00    -0.346 N 
ATOM     39  H   UNL     1     -13.473  -6.971   7.187  0.00  0.00    +0.167 HD
ENDBRANCH  29  30
ENDBRANCH   7  29
TORSDOF 5
