REMARK  Name = CHEMBL462168
REMARK  9 active torsions:
REMARK  status: ('A' for Active; 'I' for Inactive)
REMARK    1  A    between atoms: C_1  and  N_2
REMARK    2  A    between atoms: C_5  and  O_24
REMARK    3  A    between atoms: C_12  and  C_14
REMARK    4  A    between atoms: C_18  and  C_20
REMARK    5  A    between atoms: O_24  and  C_25
REMARK    6  A    between atoms: C_32  and  O_37
REMARK    7  A    between atoms: C_33  and  O_35
REMARK    8  A    between atoms: O_35  and  C_36
REMARK    9  A    between atoms: O_37  and  C_38
REMARK                            x       y       z     vdW  Elec       q    Type
REMARK                         _______ _______ _______ _____ _____    ______ ____
ROOT
ATOM      1  C   UNL     1      -0.197   1.373   0.056  0.00  0.00    +0.173 C 
ATOM      2  N   UNL     1      -0.090  -0.088   0.024  0.00  0.00    -0.265 N 
ATOM      3  C   UNL     1      -0.035  -0.855  -1.112  0.00  0.00    +0.074 A 
ATOM      4  C   UNL     1      -0.055  -0.561  -2.473  0.00  0.00    +0.074 A 
ATOM      5  C   UNL     1       0.019  -1.587  -3.395  0.00  0.00    +0.131 A 
ATOM      6  C   UNL     1       0.116  -2.913  -2.973  0.00  0.00    +0.047 A 
ATOM      7  C   UNL     1       0.137  -3.218  -1.644  0.00  0.00    +0.017 A 
ATOM      8  C   UNL     1       0.063  -2.196  -0.693  0.00  0.00    +0.042 A 
ATOM      9  C   UNL     1       0.061  -2.170   0.770  0.00  0.00    +0.155 A 
ATOM     10  N   UNL     1      -0.024  -0.921   1.145  0.00  0.00    -0.155 NA
ATOM     11  N   UNL     1       0.141  -3.281   1.615  0.00  0.00    -0.264 N 
ATOM     12  C   UNL     1       0.129  -3.114   2.953  0.00  0.00    +0.249 C 
ATOM     13  O   UNL     1       0.048  -1.996   3.424  0.00  0.00    -0.270 OA
ATOM     14  H   UNL     1       0.205  -4.173   1.239  0.00  0.00    +0.157 HD
ENDROOT
BRANCH  12  15
ATOM     15  C   UNL     1       0.214  -4.288   3.846  0.00  0.00    +0.038 A 
ATOM     16  C   UNL     1       0.312  -5.573   3.307  0.00  0.00    +0.013 A 
ATOM     17  C   UNL     1       0.392  -6.665   4.146  0.00  0.00    +0.001 A 
ATOM     18  C   UNL     1       0.373  -6.489   5.519  0.00  0.00    +0.012 A 
ATOM     19  C   UNL     1       0.276  -5.219   6.059  0.00  0.00    +0.056 A 
ATOM     20  C   UNL     1       0.201  -4.118   5.231  0.00  0.00    +0.025 A 
BRANCH  19  21
ATOM     21  C   UNL     1       0.256  -5.038   7.555  0.00  0.00    +0.417 C 
ATOM     22  F   UNL     1       0.347  -6.287   8.178  0.00  0.00    -0.166 F 
ATOM     23  F   UNL     1       1.340  -4.243   7.943  0.00  0.00    -0.166 F 
ATOM     24  F   UNL     1      -0.938  -4.414   7.933  0.00  0.00    -0.166 F 
ENDBRANCH  19  21
ENDBRANCH  12  15
BRANCH   5  25
ATOM     25  O   UNL     1      -0.001  -1.302  -4.723  0.00  0.00    -0.455 OA
BRANCH  25  26
ATOM     26  C   UNL     1      -1.084  -1.690  -5.441  0.00  0.00    +0.139 A 
ATOM     27  C   UNL     1      -2.191  -2.242  -4.819  0.00  0.00    +0.064 A 
ATOM     28  C   UNL     1      -3.286  -2.629  -5.581  0.00  0.00    +0.086 A 
ATOM     29  N   UNL     1      -3.307  -2.488  -6.886  0.00  0.00    -0.360 N 
ATOM     30  C   UNL     1      -2.272  -1.963  -7.551  0.00  0.00    +0.054 A 
ATOM     31  C   UNL     1      -1.120  -1.538  -6.845  0.00  0.00    +0.044 A 
ATOM     32  C   UNL     1      -0.038  -0.982  -7.545  0.00  0.00    +0.063 A 
ATOM     33  C   UNL     1      -0.107  -0.851  -8.901  0.00  0.00    +0.162 A 
ATOM     34  C   UNL     1      -1.248  -1.265  -9.603  0.00  0.00    +0.163 A 
ATOM     35  C   UNL     1      -2.310  -1.820  -8.948  0.00  0.00    +0.075 A 
ATOM     36  H   UNL     1      -4.091  -2.773  -7.380  0.00  0.00    +0.165 HD
BRANCH  34  37
ATOM     37  O   UNL     1      -1.294  -1.124 -10.954  0.00  0.00    -0.491 OA
ATOM     38  C   UNL     1      -2.482  -1.564 -11.613  0.00  0.00    +0.277 C 
ENDBRANCH  34  37
BRANCH  33  39
ATOM     39  O   UNL     1       0.941  -0.311  -9.579  0.00  0.00    -0.491 OA
ATOM     40  C   UNL     1       2.074   0.092  -8.808  0.00  0.00    +0.277 C 
ENDBRANCH  33  39
ENDBRANCH  25  26
ENDBRANCH   5  25
TORSDOF 6
