REMARK  Name = CHEMBL231127
REMARK  6 active torsions:
REMARK  status: ('A' for Active; 'I' for Inactive)
REMARK    1  A    between atoms: C_1  and  C_2
REMARK    2  A    between atoms: C_6  and  N_8
REMARK    3  A    between atoms: N_11  and  C_12
REMARK    4  A    between atoms: C_15  and  C_18
REMARK    5  A    between atoms: C_23  and  N_33
REMARK    6  A    between atoms: C_26  and  C_27
REMARK                            x       y       z     vdW  Elec       q    Type
REMARK                         _______ _______ _______ _____ _____    ______ ____
ROOT
ATOM      1  C   UNL     1      -0.489  -6.264   2.441  0.00  0.00    +0.035 A 
ATOM      2  C   UNL     1       0.050  -7.000   1.393  0.00  0.00    +0.024 A 
ATOM      3  C   UNL     1       0.102  -8.376   1.470  0.00  0.00    +0.010 A 
ATOM      4  C   UNL     1      -0.385  -9.028   2.602  0.00  0.00    -0.017 A 
ATOM      5  C   UNL     1      -0.925  -8.287   3.653  0.00  0.00    +0.010 A 
ATOM      6  C   UNL     1      -0.970  -6.911   3.573  0.00  0.00    +0.024 A 
ENDROOT
BRANCH   4   7
ATOM      7  C   UNL     1      -0.330 -10.507   2.688  0.00  0.00    +0.000 A 
ATOM      8  C   UNL     1      -1.459 -11.228   2.890  0.00  0.00    +0.055 A 
ATOM      9  S   UNL     1      -0.876 -12.912   2.916  0.00  0.00    -0.095 S 
ATOM     10  C   UNL     1       0.851 -12.614   2.659  0.00  0.00    +0.032 A 
ATOM     11  C   UNL     1       0.941 -11.213   2.552  0.00  0.00    +0.035 A 
ATOM     12  C   UNL     1       2.242 -10.690   2.333  0.00  0.00    +0.103 A 
ATOM     13  N   UNL     1       3.288 -11.483   2.234  0.00  0.00    -0.349 N 
ATOM     14  C   UNL     1       3.214 -12.800   2.328  0.00  0.00    +0.093 A 
ATOM     15  C   UNL     1       1.986 -13.415   2.553  0.00  0.00    +0.015 A 
ATOM     16  H   UNL     1       4.159 -11.082   2.085  0.00  0.00    +0.167 HD
BRANCH  15  17
ATOM     17  C   UNL     1       1.886 -14.890   2.660  0.00  0.00    +0.021 A 
ATOM     18  C   UNL     1       1.196 -15.489   3.719  0.00  0.00    +0.122 A 
ATOM     19  N   UNL     1       1.131 -16.808   3.776  0.00  0.00    -0.243 NA
ATOM     20  C   UNL     1       1.705 -17.555   2.854  0.00  0.00    +0.221 A 
ATOM     21  N   UNL     1       2.365 -17.032   1.840  0.00  0.00    -0.243 NA
ATOM     22  C   UNL     1       2.474 -15.722   1.703  0.00  0.00    +0.122 A 
ENDBRANCH  15  17
BRANCH  12  23
ATOM     23  N   UNL     1       2.415  -9.318   2.221  0.00  0.00    -0.344 N 
ATOM     24  H   UNL     1       1.797  -8.714   2.661  0.00  0.00    +0.144 HD
ATOM     25  H   UNL     1       3.154  -8.963   1.702  0.00  0.00    +0.144 HD
ENDBRANCH  12  23
ENDBRANCH   4   7
BRANCH   1  29
ATOM     26  N   UNL     1      -0.690  -2.925   1.073  0.00  0.00    -0.269 N 
ATOM     27  C   UNL     1      -0.738  -4.269   1.168  0.00  0.00    +0.308 C 
ATOM     28  O   UNL     1      -0.958  -4.941   0.179  0.00  0.00    -0.252 OA
ATOM     29  N   UNL     1      -0.541  -4.868   2.360  0.00  0.00    -0.269 N 
ATOM     30  H   UNL     1      -0.445  -2.393   1.846  0.00  0.00    +0.156 HD
ATOM     31  H   UNL     1      -0.436  -4.331   3.161  0.00  0.00    +0.156 HD
BRANCH  26  37
ATOM     32  C   UNL     1       0.064   0.762  -2.090  0.00  0.00    +0.044 C 
ATOM     33  C   UNL     1      -0.643  -0.510  -1.699  0.00  0.00    -0.049 A 
ATOM     34  C   UNL     1      -1.592  -1.060  -2.541  0.00  0.00    +0.003 A 
ATOM     35  C   UNL     1      -2.243  -2.226  -2.185  0.00  0.00    +0.002 A 
ATOM     36  C   UNL     1      -1.946  -2.848  -0.988  0.00  0.00    +0.023 A 
ATOM     37  C   UNL     1      -0.993  -2.299  -0.141  0.00  0.00    +0.035 A 
ATOM     38  C   UNL     1      -0.337  -1.129  -0.503  0.00  0.00    +0.026 A 
ENDBRANCH  26  37
ENDBRANCH   1  29
TORSDOF 5
