REMARK  Name = CHEMBL375819
REMARK  5 active torsions:
REMARK  status: ('A' for Active; 'I' for Inactive)
REMARK    1  A    between atoms: C_3  and  C_20
REMARK    2  A    between atoms: C_5  and  C_7
REMARK    3  A    between atoms: N_9  and  C_10
REMARK    4  A    between atoms: C_14  and  C_16
REMARK    5  A    between atoms: C_21  and  C_22
REMARK                            x       y       z     vdW  Elec       q    Type
REMARK                         _______ _______ _______ _____ _____    ______ ____
ROOT
ATOM      1  C   UNL     1      -0.017   1.376   0.033  0.00  0.00    +0.002 A 
ATOM      2  C   UNL     1       1.165   2.090   0.024  0.00  0.00    +0.017 A 
ATOM      3  C   UNL     1       2.391   1.417  -0.001  0.00  0.00    +0.026 A 
ATOM      4  C   UNL     1       2.416   0.022  -0.017  0.00  0.00    +0.030 A 
ATOM      5  C   UNL     1       1.219  -0.690  -0.007  0.00  0.00    +0.038 A 
ATOM      6  C   UNL     1       0.002  -0.004   0.018  0.00  0.00    +0.013 A 
ENDROOT
BRANCH   5   7
ATOM      7  C   UNL     1       1.236  -2.168  -0.024  0.00  0.00    +0.248 C 
ATOM      8  O   UNL     1       2.296  -2.763  -0.046  0.00  0.00    -0.270 OA
ATOM      9  N   UNL     1       0.077  -2.856  -0.015  0.00  0.00    -0.281 N 
ATOM     10  H   UNL     1      -0.766  -2.384   0.071  0.00  0.00    +0.155 HD
BRANCH   9  11
ATOM     11  C   UNL     1       0.090  -4.249  -0.128  0.00  0.00    +0.034 A 
ATOM     12  C   UNL     1      -0.921  -4.900  -0.824  0.00  0.00    +0.023 A 
ATOM     13  C   UNL     1      -0.906  -6.277  -0.934  0.00  0.00    +0.002 A 
ATOM     14  C   UNL     1       0.115  -7.007  -0.353  0.00  0.00    +0.012 A 
ATOM     15  C   UNL     1       1.123  -6.362   0.340  0.00  0.00    +0.057 A 
ATOM     16  C   UNL     1       1.117  -4.985   0.449  0.00  0.00    +0.035 A 
BRANCH  15  17
ATOM     17  C   UNL     1       2.234  -7.162   0.971  0.00  0.00    +0.417 C 
ATOM     18  F   UNL     1       2.028  -8.523   0.722  0.00  0.00    -0.166 F 
ATOM     19  F   UNL     1       3.460  -6.769   0.425  0.00  0.00    -0.166 F 
ATOM     20  F   UNL     1       2.244  -6.937   2.352  0.00  0.00    -0.166 F 
ENDBRANCH  15  17
ENDBRANCH   9  11
ENDBRANCH   5   7
BRANCH   3  21
ATOM     21  C   UNL     1       3.616   2.158  -0.011  0.00  0.00    -0.061 C 
ATOM     22  C   UNL     1       4.621   2.765  -0.020  0.00  0.00    -0.058 C 
BRANCH  22  23
ATOM     23  C   UNL     1       5.846   3.506  -0.030  0.00  0.00    +0.062 A 
ATOM     24  C   UNL     1       5.840   4.907  -0.009  0.00  0.00    +0.132 A 
ATOM     25  N   UNL     1       6.992   5.552  -0.019  0.00  0.00    -0.222 NA
ATOM     26  C   UNL     1       8.142   4.893  -0.048  0.00  0.00    +0.213 A 
ATOM     27  N   UNL     1       8.191   3.568  -0.069  0.00  0.00    -0.222 NA
ATOM     28  C   UNL     1       7.084   2.849  -0.055  0.00  0.00    +0.132 A 
ATOM     29  N   UNL     1       9.325   5.609  -0.057  0.00  0.00    -0.327 N 
ATOM     30  H   UNL     1       9.306   6.578  -0.043  0.00  0.00    +0.145 HD
ATOM     31  H   UNL     1      10.175   5.141  -0.079  0.00  0.00    +0.145 HD
ENDBRANCH  22  23
ENDBRANCH   3  21
TORSDOF 5
