REMARK  Name = CHEMBL189354
REMARK  8 active torsions:
REMARK  status: ('A' for Active; 'I' for Inactive)
REMARK    1  A    between atoms: C_1  and  N_2
REMARK    2  A    between atoms: N_2  and  C_3
REMARK    3  A    between atoms: C_6  and  N_9
REMARK    4  A    between atoms: N_12  and  C_13
REMARK    5  A    between atoms: C_15  and  C_20
REMARK    6  A    between atoms: N_30  and  C_31
REMARK    7  A    between atoms: C_35  and  S_37
REMARK    8  A    between atoms: S_37  and  N_40
REMARK                            x       y       z     vdW  Elec       q    Type
REMARK                         _______ _______ _______ _____ _____    ______ ____
ROOT
ATOM      1  C   UNL     1       1.480   1.359   0.640  0.00  0.00    +0.137 C 
ATOM      2  N   UNL     1       0.908   0.013   0.569  0.00  0.00    -0.288 N 
ATOM      3  C   UNL     1       0.798  -0.630  -0.655  0.00  0.00    +0.130 A 
ATOM      4  C   UNL     1       1.398  -0.089  -1.795  0.00  0.00    +0.061 A 
ATOM      5  C   UNL     1       1.262  -0.764  -2.993  0.00  0.00    +0.089 A 
ATOM      6  N   UNL     1       0.573  -1.895  -3.025  0.00  0.00    -0.334 N 
ATOM      7  C   UNL     1       0.015  -2.384  -1.928  0.00  0.00    +0.199 A 
ATOM      8  N   UNL     1       0.126  -1.771  -0.759  0.00  0.00    -0.201 NA
ATOM      9  N   UNL     1      -0.698  -3.570  -2.004  0.00  0.00    -0.285 N 
ATOM     10  H   UNL     1      -1.185  -3.893  -1.230  0.00  0.00    +0.155 HD
ATOM     11  H   UNL     1       0.475  -2.372  -3.864  0.00  0.00    +0.168 HD
ENDROOT
BRANCH   2  12
ATOM     12  C   UNL     1       0.473  -0.626   1.736  0.00  0.00    +0.035 A 
ATOM     13  C   UNL     1      -0.550  -0.069   2.492  0.00  0.00    +0.025 A 
ATOM     14  C   UNL     1      -0.979  -0.699   3.643  0.00  0.00    +0.025 A 
ATOM     15  C   UNL     1      -0.388  -1.889   4.045  0.00  0.00    +0.035 A 
ATOM     16  C   UNL     1       0.635  -2.446   3.289  0.00  0.00    +0.025 A 
ATOM     17  C   UNL     1       1.060  -1.820   2.135  0.00  0.00    +0.025 A 
BRANCH  15  18
ATOM     18  N   UNL     1      -0.824  -2.528   5.213  0.00  0.00    -0.269 N 
ATOM     19  C   UNL     1       0.061  -3.169   6.001  0.00  0.00    +0.308 C 
ATOM     20  O   UNL     1       1.228  -3.246   5.667  0.00  0.00    -0.252 OA
ATOM     21  N   UNL     1      -0.346  -3.726   7.159  0.00  0.00    -0.267 N 
ATOM     22  H   UNL     1      -1.763  -2.509   5.455  0.00  0.00    +0.156 HD
ATOM     23  H   UNL     1      -1.281  -3.684   7.415  0.00  0.00    +0.156 HD
BRANCH  21  24
ATOM     24  C   UNL     1       0.581  -4.365   7.994  0.00  0.00    +0.071 A 
ATOM     25  C   UNL     1       1.703  -4.973   7.449  0.00  0.00    +0.038 A 
ATOM     26  C   UNL     1       2.615  -5.602   8.274  0.00  0.00    +0.057 A 
ATOM     27  C   UNL     1       2.412  -5.627   9.642  0.00  0.00    +0.015 A 
ATOM     28  C   UNL     1       1.295  -5.023  10.189  0.00  0.00    +0.041 A 
ATOM     29  C   UNL     1       0.381  -4.386   9.369  0.00  0.00    +0.145 A 
ATOM     30  F   UNL     1      -0.707  -3.789   9.904  0.00  0.00    -0.204 F 
BRANCH  26  31
ATOM     31  C   UNL     1       3.833  -6.263   7.683  0.00  0.00    +0.417 C 
ATOM     32  F   UNL     1       4.881  -5.339   7.619  0.00  0.00    -0.166 F 
ATOM     33  F   UNL     1       4.213  -7.344   8.485  0.00  0.00    -0.166 F 
ATOM     34  F   UNL     1       3.537  -6.721   6.394  0.00  0.00    -0.166 F 
ENDBRANCH  26  31
ENDBRANCH  21  24
ENDBRANCH  15  18
ENDBRANCH   2  12
BRANCH   9  35
ATOM     35  C   UNL     1      -0.716  -4.300  -3.196  0.00  0.00    +0.035 A 
ATOM     36  C   UNL     1       0.449  -4.451  -3.937  0.00  0.00    +0.023 A 
ATOM     37  C   UNL     1       0.427  -5.172  -5.115  0.00  0.00    +0.004 A 
ATOM     38  C   UNL     1      -0.752  -5.743  -5.556  0.00  0.00    +0.028 A 
ATOM     39  C   UNL     1      -1.914  -5.594  -4.821  0.00  0.00    +0.107 A 
ATOM     40  C   UNL     1      -1.898  -4.880  -3.639  0.00  0.00    +0.051 A 
BRANCH  39  41
ATOM     41  S   UNL     1      -3.414  -6.323  -5.388  0.00  0.00    +0.056 S 
ATOM     42  O   UNL     1      -4.474  -5.579  -4.803  0.00  0.00    -0.153 OA
ATOM     43  O   UNL     1      -3.282  -6.484  -6.794  0.00  0.00    -0.153 OA
BRANCH  41  44
ATOM     44  N   UNL     1      -3.493  -7.847  -4.744  0.00  0.00    -0.204 NA
ATOM     45  H   UNL     1      -2.779  -8.168  -4.170  0.00  0.00    +0.144 HD
ATOM     46  H   UNL     1      -4.252  -8.417  -4.939  0.00  0.00    +0.144 HD
ENDBRANCH  41  44
ENDBRANCH  39  41
ENDBRANCH   9  35
TORSDOF 7
