REMARK  Name = CHEMBL380915
REMARK  3 active torsions:
REMARK  status: ('A' for Active; 'I' for Inactive)
REMARK    1  A    between atoms: C_1  and  N_2
REMARK    2  A    between atoms: C_4  and  C_12
REMARK    3  A    between atoms: C_14  and  C_19
REMARK                            x       y       z     vdW  Elec       q    Type
REMARK                         _______ _______ _______ _____ _____    ______ ____
ROOT
ATOM      1  C   UNL     1       0.039  -3.205  -1.625  0.00  0.00    +0.025 C 
ATOM      2  C   UNL     1       0.543  -3.067  -2.920  0.00  0.00    +0.073 C 
ATOM      3  C   UNL     1       0.546  -4.062  -4.009  0.00  0.00    +0.125 C 
ATOM      4  N   UNL     1       1.129  -3.463  -5.033  0.00  0.00    -0.143 NA
ATOM      5  N   UNL     1       1.481  -2.267  -4.740  0.00  0.00    -0.105 NA
ATOM      6  C   UNL     1       1.170  -1.933  -3.505  0.00  0.00    +0.298 C 
ATOM      7  O   UNL     1       1.405  -0.739  -2.905  0.00  0.00    -0.264 OA
ENDROOT
BRANCH   1  11
ATOM      8  C   UNL     1      -0.557   1.438  -0.032  0.00  0.00    +0.149 C 
ATOM      9  N   UNL     1      -0.285  -0.002  -0.035  0.00  0.00    -0.349 N 
ATOM     10  C   UNL     1      -0.331  -0.784  -1.125  0.00  0.00    +0.094 A 
ATOM     11  C   UNL     1      -0.020  -2.090  -0.772  0.00  0.00    +0.002 A 
ATOM     12  C   UNL     1       0.236  -2.069   0.683  0.00  0.00    +0.021 A 
ATOM     13  C   UNL     1       0.061  -0.736   1.084  0.00  0.00    +0.050 A 
ATOM     14  C   UNL     1       0.242  -0.397   2.420  0.00  0.00    +0.026 A 
ATOM     15  C   UNL     1       0.595  -1.367   3.335  0.00  0.00    +0.003 A 
ATOM     16  C   UNL     1       0.771  -2.683   2.937  0.00  0.00    +0.016 A 
ATOM     17  C   UNL     1       0.587  -3.040   1.617  0.00  0.00    +0.028 A 
ATOM     18 BR   UNL     1       0.831  -4.835   1.075  0.00  0.00    -0.050 Br
ENDBRANCH   1  11
BRANCH   3  19
ATOM     19  C   UNL     1       0.009  -5.439  -3.965  0.00  0.00    +0.110 A 
ATOM     20  C   UNL     1       0.096  -6.262  -5.091  0.00  0.00    +0.140 A 
ATOM     21  N   UNL     1      -0.384  -7.489  -5.045  0.00  0.00    -0.260 NA
ATOM     22  C   UNL     1      -0.946  -7.941  -3.937  0.00  0.00    +0.130 A 
ATOM     23  C   UNL     1      -1.035  -7.130  -2.819  0.00  0.00    +0.131 A 
ATOM     24  N   UNL     1      -0.553  -5.901  -2.851  0.00  0.00    -0.250 NA
ENDBRANCH   3  19
TORSDOF 2
