REMARK  Name = CHEMBL329350
REMARK  4 active torsions:
REMARK  status: ('A' for Active; 'I' for Inactive)
REMARK    1  A    between atoms: C_1  and  O_2
REMARK    2  A    between atoms: O_2  and  C_3
REMARK    3  A    between atoms: C_6  and  C_9
REMARK    4  A    between atoms: C_13  and  C_18
REMARK                            x       y       z     vdW  Elec       q    Type
REMARK                         _______ _______ _______ _____ _____    ______ ____
ROOT
ATOM      1  C   UNL     1       2.496  -2.495  -4.367  0.00  0.00    +0.018 A 
ATOM      2  C   UNL     1       1.967  -2.352  -5.668  0.00  0.00    +0.123 A 
ATOM      3  N   UNL     1       2.555  -2.937  -6.684  0.00  0.00    -0.235 NA
ATOM      4  C   UNL     1       3.657  -3.674  -6.511  0.00  0.00    +0.163 A 
ATOM      5  C   UNL     1       4.464  -4.391  -7.406  0.00  0.00    +0.046 A 
ATOM      6  C   UNL     1       5.492  -4.977  -6.658  0.00  0.00    +0.145 A 
ATOM      7  N   UNL     1       5.337  -4.651  -5.398  0.00  0.00    -0.173 NA
ATOM      8  N   UNL     1       4.205  -3.839  -5.266  0.00  0.00    -0.221 N 
ATOM      9  C   UNL     1       3.625  -3.243  -4.185  0.00  0.00    +0.124 A 
ENDROOT
BRANCH   1  13
ATOM     10  C   UNL     1       0.606  -0.607  -1.056  0.00  0.00    +0.120 A 
ATOM     11  C   UNL     1       1.173   0.164  -2.062  0.00  0.00    +0.046 A 
ATOM     12  C   UNL     1       1.786  -0.446  -3.136  0.00  0.00    +0.012 A 
ATOM     13  C   UNL     1       1.837  -1.836  -3.211  0.00  0.00    -0.015 A 
ATOM     14  C   UNL     1       1.267  -2.607  -2.200  0.00  0.00    +0.012 A 
ATOM     15  C   UNL     1       0.659  -1.992  -1.125  0.00  0.00    +0.046 A 
BRANCH  10  17
ATOM     16  C   UNL     1      -0.017   1.425   0.010  0.00  0.00    +0.277 C 
ATOM     17  O   UNL     1       0.002  -0.004   0.002  0.00  0.00    -0.495 OA
ENDBRANCH  10  17
ENDBRANCH   1  13
BRANCH   5  18
ATOM     18  C   UNL     1       4.266  -4.507  -8.867  0.00  0.00    -0.010 A 
ATOM     19  C   UNL     1       3.019  -4.859  -9.399  0.00  0.00    +0.028 A 
ATOM     20  C   UNL     1       2.879  -4.956 -10.766  0.00  0.00    +0.111 A 
ATOM     21  N   UNL     1       3.899  -4.721 -11.571  0.00  0.00    -0.263 NA
ATOM     22  C   UNL     1       5.091  -4.387 -11.111  0.00  0.00    +0.111 A 
ATOM     23  C   UNL     1       5.318  -4.261  -9.758  0.00  0.00    +0.028 A 
ENDBRANCH   5  18
TORSDOF 3
