REMARK  Name = CHEMBL404571
REMARK  5 active torsions:
REMARK  status: ('A' for Active; 'I' for Inactive)
REMARK    1  A    between atoms: C_3  and  C_28
REMARK    2  A    between atoms: C_5  and  N_7
REMARK    3  A    between atoms: N_10  and  C_11
REMARK    4  A    between atoms: C_14  and  C_17
REMARK    5  A    between atoms: C_26  and  N_27
REMARK                            x       y       z     vdW  Elec       q    Type
REMARK                         _______ _______ _______ _____ _____    ______ ____
ROOT
ATOM      1  C   UNL     1      -0.639  -5.672  -0.509  0.00  0.00    +0.035 A 
ATOM      2  C   UNL     1      -1.802  -4.947  -0.742  0.00  0.00    +0.024 A 
ATOM      3  C   UNL     1      -3.030  -5.565  -0.655  0.00  0.00    +0.012 A 
ATOM      4  C   UNL     1      -3.106  -6.922  -0.334  0.00  0.00    +0.001 A 
ATOM      5  C   UNL     1      -1.936  -7.647  -0.101  0.00  0.00    +0.012 A 
ATOM      6  C   UNL     1      -0.711  -7.025  -0.194  0.00  0.00    +0.024 A 
ENDROOT
BRANCH   4   7
ATOM      7  C   UNL     1      -4.423  -7.589  -0.239  0.00  0.00    +0.083 A 
ATOM      8  C   UNL     1      -4.710  -8.446   0.847  0.00  0.00    +0.067 A 
ATOM      9  C   UNL     1      -6.037  -9.085   0.892  0.00  0.00    +0.098 A 
ATOM     10  C   UNL     1      -6.937  -8.793  -0.161  0.00  0.00    +0.050 A 
ATOM     11  C   UNL     1      -6.539  -7.951  -1.148  0.00  0.00    +0.113 A 
ATOM     12  N   UNL     1      -5.341  -7.382  -1.168  0.00  0.00    -0.254 NA
ATOM     13  N   UNL     1      -6.069  -9.826   1.979  0.00  0.00    -0.172 NA
ATOM     14  H   UNL     1      -4.620 -10.165   3.477  0.00  0.00    +0.190 HD
ATOM     15  N   UNL     1      -4.845  -9.713   2.649  0.00  0.00    -0.263 N 
ATOM     16  C   UNL     1      -4.027  -8.887   1.973  0.00  0.00    +0.121 A 
BRANCH  16  17
ATOM     17  N   UNL     1      -2.737  -8.538   2.336  0.00  0.00    -0.343 N 
ATOM     18  H   UNL     1      -2.330  -7.738   1.969  0.00  0.00    +0.144 HD
ATOM     19  H   UNL     1      -2.240  -9.094   2.956  0.00  0.00    +0.144 HD
ENDBRANCH  16  17
ENDBRANCH   4   7
BRANCH   1  23
ATOM     20  N   UNL     1       1.905  -3.111  -0.428  0.00  0.00    -0.269 N 
ATOM     21  C   UNL     1       0.731  -3.748  -0.244  0.00  0.00    +0.308 C 
ATOM     22  O   UNL     1      -0.213  -3.155   0.240  0.00  0.00    -0.252 OA
ATOM     23  N   UNL     1       0.605  -5.042  -0.598  0.00  0.00    -0.269 N 
ATOM     24  H   UNL     1       2.634  -3.559  -0.884  0.00  0.00    +0.156 HD
ATOM     25  H   UNL     1       1.377  -5.537  -0.913  0.00  0.00    +0.156 HD
BRANCH  20  30
ATOM     26  C   UNL     1       3.043   0.378  -0.192  0.00  0.00    +0.002 A 
ATOM     27  C   UNL     1       2.400   0.785   0.963  0.00  0.00    +0.012 A 
ATOM     28  C   UNL     1       1.593  -0.098   1.657  0.00  0.00    +0.057 A 
ATOM     29  C   UNL     1       1.427  -1.390   1.198  0.00  0.00    +0.035 A 
ATOM     30  C   UNL     1       2.071  -1.802   0.039  0.00  0.00    +0.035 A 
ATOM     31  C   UNL     1       2.881  -0.913  -0.655  0.00  0.00    +0.023 A 
BRANCH  28  32
ATOM     32  C   UNL     1       0.896   0.350   2.916  0.00  0.00    +0.417 C 
ATOM     33  F   UNL     1       1.216   1.687   3.176  0.00  0.00    -0.166 F 
ATOM     34  F   UNL     1      -0.488   0.225   2.751  0.00  0.00    -0.166 F 
ATOM     35  F   UNL     1       1.311  -0.447   3.988  0.00  0.00    -0.166 F 
ENDBRANCH  28  32
ENDBRANCH  20  30
ENDBRANCH   1  23
TORSDOF 5
