REMARK  Name = CHEMBL389963
REMARK  11 active torsions:
REMARK  status: ('A' for Active; 'I' for Inactive)
REMARK    1  A    between atoms: C_1  and  N_2
REMARK    2  A    between atoms: C_6  and  C_8
REMARK    3  A    between atoms: C_8  and  O_9
REMARK    4  A    between atoms: O_9  and  C_10
REMARK    5  A    between atoms: C_12  and  N_17
REMARK    6  A    between atoms: C_22  and  O_27
REMARK    7  A    between atoms: O_27  and  C_28
REMARK    8  A    between atoms: C_35  and  O_40
REMARK    9  A    between atoms: C_36  and  O_38
REMARK   10  A    between atoms: O_38  and  C_39
REMARK   11  A    between atoms: O_40  and  C_41
REMARK                            x       y       z     vdW  Elec       q    Type
REMARK                         _______ _______ _______ _____ _____    ______ ____
ROOT
ATOM      1  N   UNL     1       6.953  -1.539  -0.147  0.00  0.00    -0.269 N 
ATOM      2  C   UNL     1       8.203  -2.043  -0.433  0.00  0.00    +0.293 A 
ATOM      3  N   UNL     1       9.330  -1.552   0.016  0.00  0.00    -0.195 NA
ATOM      4  C   UNL     1      10.357  -2.301  -0.470  0.00  0.00    +0.115 A 
ATOM      5  C   UNL     1      11.744  -2.243  -0.327  0.00  0.00    +0.078 A 
ATOM      6  C   UNL     1      12.539  -3.175  -0.967  0.00  0.00    +0.131 A 
ATOM      7  C   UNL     1      11.961  -4.168  -1.751  0.00  0.00    +0.050 A 
ATOM      8  C   UNL     1      10.591  -4.233  -1.899  0.00  0.00    +0.052 A 
ATOM      9  C   UNL     1       9.782  -3.306  -1.263  0.00  0.00    +0.157 A 
ATOM     10  O   UNL     1       8.443  -3.114  -1.209  0.00  0.00    -0.424 OA
ATOM     11  H   UNL     1       6.864  -0.744   0.403  0.00  0.00    +0.157 HD
ENDROOT
BRANCH   1  14
ATOM     12  C   UNL     1       3.492  -2.755  -0.437  0.00  0.00    +0.140 A 
ATOM     13  C   UNL     1       4.621  -2.126   0.064  0.00  0.00    +0.070 A 
ATOM     14  C   UNL     1       5.812  -2.173  -0.649  0.00  0.00    +0.038 A 
ATOM     15  C   UNL     1       5.868  -2.849  -1.861  0.00  0.00    +0.025 A 
ATOM     16  C   UNL     1       4.741  -3.474  -2.357  0.00  0.00    +0.025 A 
ATOM     17  C   UNL     1       3.556  -3.434  -1.646  0.00  0.00    +0.083 A 
ATOM     18 CL   UNL     1       2.143  -4.228  -2.270  0.00  0.00    -0.080 Cl
BRANCH  12  19
ATOM     19  O   UNL     1       2.325  -2.712   0.259  0.00  0.00    -0.492 OA
BRANCH  19  20
ATOM     20  C   UNL     1       2.333  -1.995   1.495  0.00  0.00    +0.214 C 
BRANCH  20  26
ATOM     21  C   UNL     1      -0.238   0.018   1.793  0.00  0.00    -0.096 C 
ATOM     22  N   UNL     1      -0.041  -1.345   1.282  0.00  0.00    +0.382 N 
ATOM     23  C   UNL     1      -1.318  -2.081   1.327  0.00  0.00    -0.079 C 
ATOM     24  C   UNL     1      -1.102  -3.318   2.224  0.00  0.00    -0.020 C 
ATOM     25  C   UNL     1       0.435  -3.519   2.178  0.00  0.00    -0.014 C 
ATOM     26  C   UNL     1       0.942  -2.056   2.128  0.00  0.00    -0.031 C 
ATOM     27  H   UNL     1       0.294  -1.308   0.332  0.00  0.00    -0.082 HD
ENDBRANCH  20  26
ENDBRANCH  19  20
ENDBRANCH  12  19
ENDBRANCH   1  14
BRANCH   6  28
ATOM     28  O   UNL     1      13.890  -3.121  -0.829  0.00  0.00    -0.455 OA
BRANCH  28  29
ATOM     29  C   UNL     1      14.612  -2.580  -1.841  0.00  0.00    +0.139 A 
ATOM     30  C   UNL     1      14.000  -2.167  -3.012  0.00  0.00    +0.064 A 
ATOM     31  C   UNL     1      14.766  -1.616  -4.032  0.00  0.00    +0.086 A 
ATOM     32  N   UNL     1      16.066  -1.474  -3.921  0.00  0.00    -0.360 N 
ATOM     33  C   UNL     1      16.722  -1.853  -2.819  0.00  0.00    +0.054 A 
ATOM     34  C   UNL     1      16.011  -2.417  -1.732  0.00  0.00    +0.044 A 
ATOM     35  C   UNL     1      16.701  -2.807  -0.574  0.00  0.00    +0.063 A 
ATOM     36  C   UNL     1      18.053  -2.634  -0.502  0.00  0.00    +0.162 A 
ATOM     37  C   UNL     1      18.759  -2.069  -1.575  0.00  0.00    +0.163 A 
ATOM     38  C   UNL     1      18.115  -1.694  -2.718  0.00  0.00    +0.075 A 
ATOM     39  H   UNL     1      16.563  -1.085  -4.658  0.00  0.00    +0.165 HD
BRANCH  37  40
ATOM     40  O   UNL     1      20.105  -1.907  -1.479  0.00  0.00    -0.491 OA
ATOM     41  C   UNL     1      20.769  -1.326  -2.604  0.00  0.00    +0.277 C 
ENDBRANCH  37  40
BRANCH  36  42
ATOM     42  O   UNL     1      18.721  -3.012   0.620  0.00  0.00    -0.491 OA
ATOM     43  C   UNL     1      17.946  -3.580   1.677  0.00  0.00    +0.277 C 
ENDBRANCH  36  42
ENDBRANCH  28  29
ENDBRANCH   6  28
TORSDOF 8
