REMARK  Name = CHEMBL394577
REMARK  11 active torsions:
REMARK  status: ('A' for Active; 'I' for Inactive)
REMARK    1  A    between atoms: C_1  and  C_2
REMARK    2  A    between atoms: C_2  and  C_3
REMARK    3  A    between atoms: C_2  and  C_4
REMARK    4  A    between atoms: C_2  and  N_34
REMARK    5  A    between atoms: C_7  and  C_10
REMARK    6  A    between atoms: C_11  and  C_32
REMARK    7  A    between atoms: N_16  and  C_17
REMARK    8  A    between atoms: C_20  and  C_23
REMARK    9  A    between atoms: C_23  and  C_24
REMARK   10  A    between atoms: C_24  and  N_25
REMARK   11  A    between atoms: N_28  and  C_31
REMARK                            x       y       z     vdW  Elec       q    Type
REMARK                         _______ _______ _______ _____ _____    ______ ____
ROOT
ATOM      1  C   UNL     1      -5.727  -1.167  -0.197  0.00  0.00    +0.093 A 
ATOM      2  C   UNL     1      -6.494  -1.129  -1.382  0.00  0.00    +0.096 A 
ATOM      3  C   UNL     1      -7.866  -1.391  -1.289  0.00  0.00    +0.135 A 
ATOM      4  N   UNL     1      -8.389  -1.662  -0.108  0.00  0.00    -0.221 NA
ATOM      5  C   UNL     1      -7.637  -1.689   0.985  0.00  0.00    +0.220 A 
ATOM      6  N   UNL     1      -6.335  -1.454   0.949  0.00  0.00    -0.213 NA
ATOM      7  N   UNL     1      -8.232  -1.978   2.199  0.00  0.00    -0.284 N 
ATOM      8  H   UNL     1      -7.715  -1.922   3.018  0.00  0.00    +0.155 HD
ENDROOT
BRANCH   1  12
ATOM      9  C   UNL     1      -1.549  -0.396  -0.298  0.00  0.00    -0.059 A 
ATOM     10  C   UNL     1      -2.298   0.008   0.792  0.00  0.00    +0.003 A 
ATOM     11  C   UNL     1      -3.655  -0.239   0.831  0.00  0.00    +0.010 A 
ATOM     12  C   UNL     1      -4.271  -0.898  -0.233  0.00  0.00    +0.002 A 
ATOM     13  C   UNL     1      -3.511  -1.302  -1.330  0.00  0.00    +0.010 A 
ATOM     14  C   UNL     1      -2.155  -1.045  -1.359  0.00  0.00    +0.003 A 
BRANCH   9  16
ATOM     15  C   UNL     1       0.236   1.151   0.458  0.00  0.00    -0.006 C 
ATOM     16  C   UNL     1      -0.067  -0.123  -0.334  0.00  0.00    -0.051 C 
ATOM     17  C   UNL     1       0.684  -1.301   0.289  0.00  0.00    -0.006 C 
BRANCH  16  18
ATOM     18  N   UNL     1       0.365   0.052  -1.727  0.00  0.00    +0.384 N 
ATOM     19  H   UNL     1       1.357   0.235  -1.751  0.00  0.00    -0.089 HD
ATOM     20  H   UNL     1       0.165  -0.787  -2.249  0.00  0.00    -0.089 HD
ATOM     21  H   UNL     1      -0.130   0.830  -2.138  0.00  0.00    -0.089 HD
ENDBRANCH  16  18
ENDBRANCH   9  16
ENDBRANCH   1  12
BRANCH   7  22
ATOM     22  C   UNL     1      -9.579  -2.349   2.247  0.00  0.00    +0.034 A 
ATOM     23  C   UNL     1     -10.134  -3.087   1.210  0.00  0.00    +0.023 A 
ATOM     24  C   UNL     1     -11.465  -3.453   1.261  0.00  0.00    +0.005 A 
ATOM     25  C   UNL     1     -12.244  -3.085   2.342  0.00  0.00    -0.046 A 
ATOM     26  C   UNL     1     -11.694  -2.350   3.377  0.00  0.00    +0.005 A 
ATOM     27  C   UNL     1     -10.363  -1.986   3.335  0.00  0.00    +0.023 A 
BRANCH  25  28
ATOM     28  C   UNL     1     -13.696  -3.486   2.394  0.00  0.00    +0.050 C 
BRANCH  28  29
ATOM     29  C   UNL     1     -13.827  -4.843   3.087  0.00  0.00    +0.089 C 
BRANCH  29  30
ATOM     30  N   UNL     1     -15.242  -5.233   3.137  0.00  0.00    -0.306 NA
ATOM     31  C   UNL     1     -16.008  -4.328   4.006  0.00  0.00    +0.066 C 
ATOM     32  C   UNL     1     -17.484  -4.731   3.984  0.00  0.00    -0.064 C 
ATOM     33  N   UNL     1     -17.619  -6.117   4.451  0.00  0.00    +0.379 N 
ATOM     34  C   UNL     1     -16.870  -7.012   3.559  0.00  0.00    -0.064 C 
ATOM     35  C   UNL     1     -15.389  -6.628   3.578  0.00  0.00    +0.066 C 
ATOM     36  C   UNL     1     -19.038  -6.498   4.447  0.00  0.00    -0.096 C 
ATOM     37  H   UNL     1     -17.254  -6.193   5.388  0.00  0.00    -0.082 HD
ENDBRANCH  29  30
ENDBRANCH  28  29
ENDBRANCH  25  28
ENDBRANCH   7  22
BRANCH   2  38
ATOM     38  C   UNL     1      -5.886  -0.829  -2.644  0.00  0.00    +0.103 C 
ATOM     39  N   UNL     1      -5.403  -0.592  -3.644  0.00  0.00    -0.191 NA
ENDBRANCH   2  38
TORSDOF 8
