REMARK  Name = CHEMBL83279
REMARK  6 active torsions:
REMARK  status: ('A' for Active; 'I' for Inactive)
REMARK    1  A    between atoms: C_4  and  N_7
REMARK    2  A    between atoms: C_14  and  C_16
REMARK    3  A    between atoms: C_19  and  O_22
REMARK    4  A    between atoms: O_22  and  C_23
REMARK    5  A    between atoms: C_23  and  C_24
REMARK    6  A    between atoms: C_24  and  N_25
REMARK                            x       y       z     vdW  Elec       q    Type
REMARK                         _______ _______ _______ _____ _____    ______ ____
ROOT
ATOM      1  C   UNL     1       5.749  -4.745   3.122  0.00  0.00    -0.018 A 
ATOM      2  C   UNL     1       7.010  -5.110   2.654  0.00  0.00    +0.012 A 
ATOM      3  C   UNL     1       7.698  -6.139   3.261  0.00  0.00    +0.046 A 
ATOM      4  C   UNL     1       7.136  -6.812   4.337  0.00  0.00    +0.120 A 
ATOM      5  C   UNL     1       5.880  -6.451   4.806  0.00  0.00    +0.046 A 
ATOM      6  C   UNL     1       5.190  -5.418   4.206  0.00  0.00    +0.012 A 
ENDROOT
BRANCH   1  14
ATOM      7  N   UNL     1       3.158  -0.529   0.482  0.00  0.00    -0.299 N 
ATOM      8  C   UNL     1       4.137  -0.281  -0.434  0.00  0.00    +0.205 A 
ATOM      9  N   UNL     1       5.131  -1.101  -0.258  0.00  0.00    -0.235 NA
ATOM     10  C   UNL     1       4.861  -1.931   0.782  0.00  0.00    +0.090 A 
ATOM     11  C   UNL     1       3.594  -1.573   1.276  0.00  0.00    +0.073 A 
ATOM     12  C   UNL     1       3.049  -2.254   2.356  0.00  0.00    +0.029 A 
ATOM     13  C   UNL     1       3.744  -3.272   2.947  0.00  0.00    +0.010 A 
ATOM     14  C   UNL     1       5.006  -3.638   2.470  0.00  0.00    -0.016 A 
ATOM     15  C   UNL     1       5.564  -2.975   1.386  0.00  0.00    +0.038 A 
BRANCH   7  19
ATOM     16  C   UNL     1      -0.466   1.499   0.834  0.00  0.00    +0.000 A 
ATOM     17  C   UNL     1       0.717   2.210   0.753  0.00  0.00    +0.002 A 
ATOM     18  C   UNL     1       1.920   1.541   0.636  0.00  0.00    +0.026 A 
ATOM     19  C   UNL     1       1.940   0.153   0.600  0.00  0.00    +0.048 A 
ATOM     20  C   UNL     1       0.750  -0.558   0.682  0.00  0.00    +0.026 A 
ATOM     21  C   UNL     1      -0.449   0.117   0.799  0.00  0.00    +0.002 A 
ENDBRANCH   7  19
ENDBRANCH   1  14
BRANCH   4  22
ATOM     22  O   UNL     1       7.816  -7.827   4.933  0.00  0.00    -0.494 OA
BRANCH  22  23
ATOM     23  C   UNL     1       7.178  -8.476   6.035  0.00  0.00    +0.210 C 
BRANCH  23  24
ATOM     24  C   UNL     1       8.089  -9.582   6.572  0.00  0.00    -0.037 C 
BRANCH  24  25
ATOM     25  N   UNL     1       9.325  -8.987   7.098  0.00  0.00    +0.382 N 
ATOM     26  C   UNL     1      10.261 -10.055   7.469  0.00  0.00    -0.079 C 
ATOM     27  C   UNL     1      11.580  -9.441   7.941  0.00  0.00    -0.019 C 
ATOM     28  C   UNL     1      11.314  -8.548   9.157  0.00  0.00    -0.004 C 
ATOM     29  C   UNL     1      10.280  -7.483   8.780  0.00  0.00    -0.019 C 
ATOM     30  C   UNL     1       9.009  -8.170   8.276  0.00  0.00    -0.079 C 
ATOM     31  H   UNL     1       9.745  -8.405   6.389  0.00  0.00    -0.082 HD
ENDBRANCH  24  25
ENDBRANCH  23  24
ENDBRANCH  22  23
ENDBRANCH   4  22
TORSDOF 6
