REMARK  Name = CHEMBL248976
REMARK  6 active torsions:
REMARK  status: ('A' for Active; 'I' for Inactive)
REMARK    1  A    between atoms: C_4  and  C_7
REMARK    2  A    between atoms: C_10  and  N_13
REMARK    3  A    between atoms: C_14  and  C_16
REMARK    4  A    between atoms: C_21  and  N_22
REMARK    5  A    between atoms: N_22  and  C_23
REMARK    6  A    between atoms: C_23  and  C_24
REMARK                            x       y       z     vdW  Elec       q    Type
REMARK                         _______ _______ _______ _____ _____    ______ ____
ROOT
ATOM      1  N   UNL     1       7.343  -2.717  -0.127  0.00  0.00    -0.281 N 
ATOM      2  C   UNL     1       7.366  -4.060  -0.015  0.00  0.00    +0.252 C 
ATOM      3  O   UNL     1       6.324  -4.686   0.002  0.00  0.00    -0.270 OA
ATOM      4  H   UNL     1       8.174  -2.224  -0.215  0.00  0.00    +0.155 HD
ENDROOT
BRANCH   1   8
ATOM      5  C   UNL     1       3.705  -0.683  -0.091  0.00  0.00    -0.018 A 
ATOM      6  C   UNL     1       3.863  -1.844   0.665  0.00  0.00    +0.010 A 
ATOM      7  C   UNL     1       5.067  -2.515   0.651  0.00  0.00    +0.024 A 
ATOM      8  C   UNL     1       6.123  -2.035  -0.115  0.00  0.00    +0.034 A 
ATOM      9  C   UNL     1       5.968  -0.878  -0.869  0.00  0.00    +0.024 A 
ATOM     10  C   UNL     1       4.763  -0.207  -0.863  0.00  0.00    +0.010 A 
BRANCH   5  14
ATOM     11  C   UNL     1      -0.006   1.393  -0.053  0.00  0.00    +0.000 A 
ATOM     12  C   UNL     1       0.149   0.244   0.702  0.00  0.00    +0.001 A 
ATOM     13  C   UNL     1       1.351  -0.434   0.693  0.00  0.00    +0.008 A 
ATOM     14  C   UNL     1       2.410   0.041  -0.078  0.00  0.00    -0.018 A 
ATOM     15  C   UNL     1       2.249   1.198  -0.837  0.00  0.00    +0.008 A 
ATOM     16  C   UNL     1       1.042   1.868  -0.821  0.00  0.00    +0.001 A 
ENDBRANCH   5  14
ENDBRANCH   1   8
BRANCH   2  17
ATOM     17  C   UNL     1       8.654  -4.769   0.088  0.00  0.00    +0.077 A 
ATOM     18  C   UNL     1       9.854  -4.056   0.191  0.00  0.00    +0.018 A 
ATOM     19  C   UNL     1      11.036  -4.769   0.284  0.00  0.00    +0.021 A 
ATOM     20  C   UNL     1      11.000  -6.152   0.274  0.00  0.00    +0.113 A 
ATOM     21  N   UNL     1       9.859  -6.806   0.177  0.00  0.00    -0.240 NA
ATOM     22  C   UNL     1       8.699  -6.174   0.089  0.00  0.00    +0.131 A 
BRANCH  22  23
ATOM     23  N   UNL     1       7.526  -6.900  -0.005  0.00  0.00    -0.324 N 
ATOM     24  H   UNL     1       6.670  -6.443   0.006  0.00  0.00    +0.148 HD
BRANCH  23  25
ATOM     25  C   UNL     1       7.575  -8.359  -0.123  0.00  0.00    +0.138 C 
BRANCH  25  26
ATOM     26  C   UNL     1       6.173  -8.904  -0.210  0.00  0.00    -0.028 A 
ATOM     27  C   UNL     1       5.474  -9.252   0.936  0.00  0.00    +0.025 A 
ATOM     28  C   UNL     1       4.189  -9.748   0.817  0.00  0.00    +0.111 A 
ATOM     29  N   UNL     1       3.629  -9.892  -0.368  0.00  0.00    -0.263 NA
ATOM     30  C   UNL     1       4.263  -9.572  -1.478  0.00  0.00    +0.111 A 
ATOM     31  C   UNL     1       5.548  -9.063  -1.437  0.00  0.00    +0.025 A 
ENDBRANCH  25  26
ENDBRANCH  23  25
ENDBRANCH  22  23
ENDBRANCH   2  17
TORSDOF 6
