REMARK  Name = CHEMBL595615
REMARK  10 active torsions:
REMARK  status: ('A' for Active; 'I' for Inactive)
REMARK    1  A    between atoms: C_1  and  N_2
REMARK    2  A    between atoms: N_5  and  C_8
REMARK    3  A    between atoms: C_8  and  C_9
REMARK    4  A    between atoms: C_9  and  C_10
REMARK    5  A    between atoms: C_10  and  O_11
REMARK    6  A    between atoms: O_11  and  C_12
REMARK    7  A    between atoms: C_17  and  O_18
REMARK    8  A    between atoms: O_18  and  C_19
REMARK    9  A    between atoms: N_24  and  C_25
REMARK   10  A    between atoms: C_28  and  C_31
REMARK                            x       y       z     vdW  Elec       q    Type
REMARK                         _______ _______ _______ _____ _____    ______ ____
ROOT
ATOM      1  C   UNL     1       1.066  -7.867   3.777  0.00  0.00    +0.164 A 
ATOM      2  C   UNL     1       0.433  -8.701   2.881  0.00  0.00    +0.078 A 
ATOM      3  C   UNL     1       0.296 -10.061   3.183  0.00  0.00    +0.080 A 
ATOM      4  C   UNL     1       0.812 -10.559   4.405  0.00  0.00    +0.044 A 
ATOM      5  C   UNL     1       1.452  -9.691   5.298  0.00  0.00    +0.062 A 
ATOM      6  C   UNL     1       1.579  -8.368   4.982  0.00  0.00    +0.162 A 
ATOM      7  C   UNL     1       0.660 -11.938   4.682  0.00  0.00    +0.134 A 
ATOM      8  N   UNL     1       0.042 -12.694   3.784  0.00  0.00    -0.220 NA
ATOM      9  C   UNL     1      -0.424 -12.185   2.655  0.00  0.00    +0.223 A 
ATOM     10  N   UNL     1      -0.311 -10.915   2.345  0.00  0.00    -0.235 NA
ATOM     11  N   UNL     1       1.141 -12.483   5.856  0.00  0.00    -0.299 N 
ATOM     12  H   UNL     1       1.516 -11.907   6.540  0.00  0.00    +0.154 HD
ENDROOT
BRANCH  11  13
ATOM     13  C   UNL     1       1.089 -13.863   6.058  0.00  0.00    +0.032 A 
ATOM     14  C   UNL     1       1.287 -14.729   4.987  0.00  0.00    +0.024 A 
ATOM     15  C   UNL     1       1.236 -16.091   5.183  0.00  0.00    +0.012 A 
ATOM     16  C   UNL     1       0.985 -16.603   6.458  0.00  0.00    +0.007 A 
ATOM     17  C   UNL     1       0.786 -15.731   7.531  0.00  0.00    +0.012 A 
ATOM     18  C   UNL     1       0.844 -14.369   7.330  0.00  0.00    +0.024 A 
BRANCH  16  19
ATOM     19  C   UNL     1       0.929 -18.064   6.672  0.00  0.00    +0.109 A 
ATOM     20  N   UNL     1       1.094 -19.032   5.797  0.00  0.00    -0.239 NA
ATOM     21  C   UNL     1       1.015 -20.334   6.135  0.00  0.00    +0.079 A 
ATOM     22  C   UNL     1       1.171 -21.466   5.299  0.00  0.00    +0.029 A 
ATOM     23  C   UNL     1       1.059 -22.724   5.802  0.00  0.00    +0.002 A 
ATOM     24  C   UNL     1       0.790 -22.952   7.144  0.00  0.00    +0.001 A 
ATOM     25  C   UNL     1       0.632 -21.874   7.996  0.00  0.00    +0.017 A 
ATOM     26  C   UNL     1       0.742 -20.599   7.498  0.00  0.00    +0.040 A 
ATOM     27  S   UNL     1       0.627 -18.965   8.186  0.00  0.00    -0.067 S 
ENDBRANCH  16  19
ENDBRANCH  11  13
BRANCH   6  28
ATOM     28  O   UNL     1       2.205  -7.526   5.847  0.00  0.00    -0.491 OA
ATOM     29  C   UNL     1       2.706  -8.096   7.058  0.00  0.00    +0.277 C 
ENDBRANCH   6  28
BRANCH   1  30
ATOM     30  O   UNL     1       1.200  -6.547   3.487  0.00  0.00    -0.488 OA
BRANCH  30  31
ATOM     31  C   UNL     1       0.656  -6.097   2.244  0.00  0.00    +0.230 C 
BRANCH  31  32
ATOM     32  C   UNL     1       0.901  -4.595   2.094  0.00  0.00    +0.056 C 
BRANCH  32  33
ATOM     33  C   UNL     1       0.319  -4.113   0.763  0.00  0.00    +0.087 C 
BRANCH  33  38
ATOM     34  C   UNL     1       1.680   1.110  -0.852  0.00  0.00    -0.096 C 
ATOM     35  N   UNL     1       1.468  -0.340  -0.757  0.00  0.00    +0.379 N 
ATOM     36  C   UNL     1       0.033  -0.615  -0.605  0.00  0.00    -0.064 C 
ATOM     37  C   UNL     1      -0.191  -2.127  -0.525  0.00  0.00    +0.066 C 
ATOM     38  N   UNL     1       0.554  -2.671   0.619  0.00  0.00    -0.306 NA
ATOM     39  C   UNL     1       1.990  -2.381   0.492  0.00  0.00    +0.066 C 
ATOM     40  C   UNL     1       2.196  -0.867   0.405  0.00  0.00    -0.064 C 
ATOM     41  H   UNL     1       1.807  -0.785  -1.597  0.00  0.00    -0.082 HD
ENDBRANCH  33  38
ENDBRANCH  32  33
ENDBRANCH  31  32
ENDBRANCH  30  31
ENDBRANCH   1  30
TORSDOF 8
