REMARK  Name = CHEMBL383671
REMARK  7 active torsions:
REMARK  status: ('A' for Active; 'I' for Inactive)
REMARK    1  A    between atoms: C_1  and  C_2
REMARK    2  A    between atoms: C_10  and  O_13
REMARK    3  A    between atoms: O_13  and  C_14
REMARK    4  A    between atoms: C_16  and  C_27
REMARK    5  A    between atoms: C_17  and  C_23
REMARK    6  A    between atoms: C_23  and  O_25
REMARK    7  A    between atoms: O_25  and  C_26
REMARK                            x       y       z     vdW  Elec       q    Type
REMARK                         _______ _______ _______ _____ _____    ______ ____
ROOT
ATOM      1  C   UNL     1       0.200  -6.884  -0.474  0.00  0.00    +0.248 A 
ATOM      2  C   UNL     1       0.333  -8.151  -1.093  0.00  0.00    +0.131 A 
ATOM      3  C   UNL     1       0.370  -8.562  -2.406  0.00  0.00    -0.004 A 
ATOM      4  C   UNL     1       0.520  -9.964  -2.390  0.00  0.00    +0.082 A 
ATOM      5  C   UNL     1       0.569 -10.356  -1.062  0.00  0.00    +0.128 A 
ATOM      6  N   UNL     1       0.456  -9.269  -0.286  0.00  0.00    -0.232 N 
ATOM      7  N   UNL     1       0.445  -9.089   1.105  0.00  0.00    -0.155 NA
ATOM      8  C   UNL     1       0.319  -7.892   1.608  0.00  0.00    +0.247 A 
ATOM      9  N   UNL     1       0.204  -6.807   0.844  0.00  0.00    -0.198 NA
ATOM     10  C   UNL     1       0.269  -7.682  -3.626  0.00  0.00    +0.047 C 
ENDROOT
BRANCH   4  11
ATOM     11  C   UNL     1       0.608 -10.847  -3.567  0.00  0.00    +0.341 C 
ATOM     12  O   UNL     1       0.552 -10.376  -4.685  0.00  0.00    -0.245 OA
BRANCH  11  13
ATOM     13  O   UNL     1       0.751 -12.177  -3.401  0.00  0.00    -0.464 OA
ATOM     14  C   UNL     1       0.830 -12.973  -4.585  0.00  0.00    +0.280 C 
ENDBRANCH  11  13
ENDBRANCH   4  11
BRANCH   1  15
ATOM     15  O   UNL     1       0.076  -5.766  -1.225  0.00  0.00    -0.433 OA
BRANCH  15  25
ATOM     16  C   UNL     1       2.373   0.362   2.173  0.00  0.00    +0.063 C 
ATOM     17  C   UNL     1       1.678  -0.801   1.513  0.00  0.00    +0.014 A 
ATOM     18  C   UNL     1       2.296  -1.867   0.980  0.00  0.00    +0.033 A 
ATOM     19  C   UNL     1       1.252  -2.748   0.450  0.00  0.00    +0.039 A 
ATOM     20  C   UNL     1       0.029  -2.109   0.721  0.00  0.00    +0.050 A 
ATOM     21  N   UNL     1       0.323  -0.930   1.373  0.00  0.00    -0.358 N 
ATOM     22  H   UNL     1      -0.333  -0.287   1.684  0.00  0.00    +0.166 HD
ATOM     23  C   UNL     1      -1.161  -2.713   0.330  0.00  0.00    +0.030 A 
ATOM     24  C   UNL     1      -1.137  -3.929  -0.316  0.00  0.00    +0.051 A 
ATOM     25  C   UNL     1       0.071  -4.565  -0.586  0.00  0.00    +0.166 A 
ATOM     26  C   UNL     1       1.266  -3.981  -0.206  0.00  0.00    +0.175 A 
ATOM     27  F   UNL     1       2.438  -4.599  -0.469  0.00  0.00    -0.201 F 
ENDBRANCH  15  25
ENDBRANCH   1  15
TORSDOF 4
