REMARK  Name = CHEMBL372349
REMARK  10 active torsions:
REMARK  status: ('A' for Active; 'I' for Inactive)
REMARK    1  A    between atoms: C_1  and  O_2
REMARK    2  A    between atoms: O_2  and  C_3
REMARK    3  A    between atoms: C_3  and  C_4
REMARK    4  A    between atoms: C_4  and  O_5
REMARK    5  A    between atoms: O_5  and  C_6
REMARK    6  A    between atoms: C_11  and  O_12
REMARK    7  A    between atoms: O_12  and  C_13
REMARK    8  A    between atoms: C_14  and  N_18
REMARK    9  A    between atoms: C_22  and  O_26
REMARK   10  A    between atoms: O_26  and  C_27
REMARK                            x       y       z     vdW  Elec       q    Type
REMARK                         _______ _______ _______ _____ _____    ______ ____
ROOT
ATOM      1  C   UNL     1      -0.546  -4.062  -0.285  0.00  0.00    +0.164 A 
ATOM      2  C   UNL     1       0.464  -4.967  -0.453  0.00  0.00    +0.078 A 
ATOM      3  C   UNL     1       0.155  -6.321  -0.649  0.00  0.00    +0.080 A 
ATOM      4  C   UNL     1      -1.205  -6.729  -0.670  0.00  0.00    +0.048 A 
ATOM      5  C   UNL     1      -2.219  -5.783  -0.496  0.00  0.00    +0.063 A 
ATOM      6  C   UNL     1      -1.889  -4.470  -0.301  0.00  0.00    +0.162 A 
ATOM      7  C   UNL     1      -1.487  -8.106  -0.871  0.00  0.00    +0.164 A 
ATOM      8  N   UNL     1      -0.460  -8.939  -1.027  0.00  0.00    -0.216 NA
ATOM      9  C   UNL     1       0.788  -8.507  -0.999  0.00  0.00    +0.224 A 
ATOM     10  N   UNL     1       1.107  -7.246  -0.818  0.00  0.00    -0.235 NA
ENDROOT
BRANCH   7  11
ATOM     11  N   UNL     1      -2.769  -8.561  -0.901  0.00  0.00    -0.228 NA
ATOM     12  C   UNL     1      -3.005  -9.842  -0.942  0.00  0.00    +0.098 C 
ATOM     13  C   UNL     1      -4.371 -10.400  -1.306  0.00  0.00    +0.142 C 
ATOM     14  C   UNL     1      -4.147 -11.456  -2.367  0.00  0.00    +0.204 C 
ATOM     15  C   UNL     1      -2.997 -12.373  -2.245  0.00  0.00    +0.175 C 
ATOM     16  C   UNL     1      -1.948 -12.084  -1.435  0.00  0.00    +0.102 C 
ATOM     17  C   UNL     1      -1.951 -10.850  -0.641  0.00  0.00    +0.204 C 
ATOM     18  O   UNL     1      -1.124 -10.661   0.232  0.00  0.00    -0.286 OA
ATOM     19  O   UNL     1      -4.904 -11.549  -3.304  0.00  0.00    -0.288 OA
BRANCH  15  20
ATOM     20  O   UNL     1      -2.988 -13.523  -2.956  0.00  0.00    -0.452 OA
BRANCH  20  21
ATOM     21  C   UNL     1      -3.886 -14.486  -2.622  0.00  0.00    +0.131 A 
ATOM     22  C   UNL     1      -3.990 -15.637  -3.392  0.00  0.00    +0.046 A 
ATOM     23  C   UNL     1      -4.904 -16.615  -3.050  0.00  0.00    +0.006 A 
ATOM     24  C   UNL     1      -5.715 -16.450  -1.944  0.00  0.00    +0.038 A 
ATOM     25  C   UNL     1      -5.615 -15.303  -1.174  0.00  0.00    +0.127 A 
ATOM     26  C   UNL     1      -4.698 -14.323  -1.508  0.00  0.00    +0.084 A 
ATOM     27  F   UNL     1      -6.410 -15.144  -0.093  0.00  0.00    -0.205 F 
ENDBRANCH  20  21
ENDBRANCH  15  20
ENDBRANCH   7  11
BRANCH   6  28
ATOM     28  O   UNL     1      -2.873  -3.549  -0.127  0.00  0.00    -0.491 OA
ATOM     29  C   UNL     1      -4.220  -4.026  -0.153  0.00  0.00    +0.277 C 
ENDBRANCH   6  28
BRANCH   1  30
ATOM     30  O   UNL     1      -0.246  -2.751  -0.095  0.00  0.00    -0.486 OA
BRANCH  30  31
ATOM     31  C   UNL     1       1.139  -2.397  -0.088  0.00  0.00    +0.257 C 
BRANCH  31  32
ATOM     32  C   UNL     1       1.278  -0.890   0.138  0.00  0.00    +0.200 C 
BRANCH  32  34
ATOM     33  C   UNL     1       0.883   0.834   1.756  0.00  0.00    +0.194 C 
ATOM     34  O   UNL     1       0.796  -0.557   1.442  0.00  0.00    -0.380 OA
ENDBRANCH  32  34
ENDBRANCH  31  32
ENDBRANCH  30  31
ENDBRANCH   1  30
TORSDOF 8
