REMARK  Name = CHEMBL244100
REMARK  8 active torsions:
REMARK  status: ('A' for Active; 'I' for Inactive)
REMARK    1  A    between atoms: C_1  and  O_2
REMARK    2  A    between atoms: O_2  and  C_3
REMARK    3  A    between atoms: C_3  and  N_5
REMARK    4  A    between atoms: C_11  and  C_16
REMARK    5  A    between atoms: C_16  and  C_18
REMARK    6  A    between atoms: C_21  and  N_24
REMARK    7  A    between atoms: N_27  and  C_28
REMARK    8  A    between atoms: C_30  and  C_35
REMARK                            x       y       z     vdW  Elec       q    Type
REMARK                         _______ _______ _______ _____ _____    ______ ____
ROOT
ATOM      1  C   UNL     1       4.869  -5.780  -7.316  0.00  0.00    +0.022 A 
ATOM      2  C   UNL     1       5.062  -4.462  -7.741  0.00  0.00    +0.013 A 
ATOM      3  C   UNL     1       5.782  -4.208  -8.886  0.00  0.00    +0.024 A 
ATOM      4  C   UNL     1       6.317  -5.262  -9.621  0.00  0.00    +0.035 A 
ATOM      5  C   UNL     1       6.126  -6.576  -9.202  0.00  0.00    +0.024 A 
ATOM      6  C   UNL     1       5.412  -6.836  -8.055  0.00  0.00    +0.013 A 
ENDROOT
BRANCH   4   7
ATOM      7  N   UNL     1       7.045  -5.002 -10.781  0.00  0.00    -0.269 N 
ATOM      8  C   UNL     1       7.803  -3.890 -10.866  0.00  0.00    +0.308 C 
ATOM      9  O   UNL     1       7.925  -3.163  -9.899  0.00  0.00    -0.252 OA
ATOM     10  N   UNL     1       8.424  -3.585 -12.022  0.00  0.00    -0.267 N 
ATOM     11  H   UNL     1       7.006  -5.620 -11.527  0.00  0.00    +0.156 HD
ATOM     12  H   UNL     1       8.275  -4.129 -12.811  0.00  0.00    +0.156 HD
BRANCH  10  13
ATOM     13  C   UNL     1       9.286  -2.483 -12.084  0.00  0.00    +0.071 A 
ATOM     14  C   UNL     1       9.103  -1.407 -11.226  0.00  0.00    +0.038 A 
ATOM     15  C   UNL     1       9.954  -0.322 -11.289  0.00  0.00    +0.057 A 
ATOM     16  C   UNL     1      10.989  -0.304 -12.206  0.00  0.00    +0.015 A 
ATOM     17  C   UNL     1      11.175  -1.372 -13.063  0.00  0.00    +0.041 A 
ATOM     18  C   UNL     1      10.330  -2.465 -13.002  0.00  0.00    +0.145 A 
ATOM     19  F   UNL     1      10.516  -3.512 -13.836  0.00  0.00    -0.204 F 
BRANCH  15  20
ATOM     20  C   UNL     1       9.755   0.846 -10.357  0.00  0.00    +0.417 C 
ATOM     21  F   UNL     1      10.487   0.636  -9.183  0.00  0.00    -0.166 F 
ATOM     22  F   UNL     1      10.196   2.019 -10.978  0.00  0.00    -0.166 F 
ATOM     23  F   UNL     1       8.397   0.966 -10.043  0.00  0.00    -0.166 F 
ENDBRANCH  15  20
ENDBRANCH  10  13
ENDBRANCH   4   7
BRANCH   1  24
ATOM     24  C   UNL     1       4.099  -6.056  -6.089  0.00  0.00    +0.193 C 
ATOM     25  O   UNL     1       4.215  -7.128  -5.526  0.00  0.00    -0.287 OA
BRANCH  24  32
ATOM     26  N   UNL     1      -0.397  -0.360  -5.641  0.00  0.00    -0.109 NA
ATOM     27  C   UNL     1       0.383  -1.420  -5.469  0.00  0.00    +0.201 A 
ATOM     28  N   UNL     1       1.085  -2.050  -6.449  0.00  0.00    -0.326 N 
ATOM     29  H   UNL     1       1.100  -1.802  -7.387  0.00  0.00    +0.169 HD
ATOM     30  C   UNL     1       1.777  -3.112  -5.873  0.00  0.00    +0.066 A 
ATOM     31  C   UNL     1       2.631  -4.069  -6.390  0.00  0.00    +0.039 A 
ATOM     32  C   UNL     1       3.188  -5.031  -5.544  0.00  0.00    +0.024 A 
ATOM     33  C   UNL     1       2.880  -5.022  -4.178  0.00  0.00    +0.014 A 
ATOM     34  C   UNL     1       2.030  -4.068  -3.668  0.00  0.00    +0.028 A 
ATOM     35  C   UNL     1       1.474  -3.109  -4.507  0.00  0.00    +0.065 A 
ATOM     36  N   UNL     1       0.612  -2.046  -4.282  0.00  0.00    -0.326 N 
ATOM     37  H   UNL     1       0.234  -1.793  -3.425  0.00  0.00    +0.169 HD
BRANCH  26  38
ATOM     38  C   UNL     1      -0.938   0.251  -4.583  0.00  0.00    +0.427 C 
ATOM     39  O   UNL     1      -0.790  -0.216  -3.468  0.00  0.00    -0.224 OA
BRANCH  38  41
ATOM     40  C   UNL     1      -2.196   1.987  -3.574  0.00  0.00    +0.282 C 
ATOM     41  O   UNL     1      -1.647   1.387  -4.749  0.00  0.00    -0.452 OA
ENDBRANCH  38  41
ENDBRANCH  26  38
ENDBRANCH  24  32
ENDBRANCH   1  24
TORSDOF 7
