REMARK  Name = CHEMBL1085296
REMARK  5 active torsions:
REMARK  status: ('A' for Active; 'I' for Inactive)
REMARK    1  A    between atoms: C_1  and  N_2
REMARK    2  A    between atoms: C_13  and  C_21
REMARK    3  A    between atoms: N_17  and  C_18
REMARK    4  A    between atoms: C_18  and  C_19
REMARK    5  A    between atoms: C_19  and  O_20
REMARK                            x       y       z     vdW  Elec       q    Type
REMARK                         _______ _______ _______ _____ _____    ______ ____
ROOT
ATOM      1  C   UNL     1      -1.348   1.533  -0.398  0.00  0.00    +0.172 C 
ATOM      2  N   UNL     1      -1.188   0.078  -0.335  0.00  0.00    -0.271 N 
ATOM      3  C   UNL     1      -0.937  -0.727  -1.369  0.00  0.00    +0.047 A 
ATOM      4  C   UNL     1      -0.846  -2.013  -0.881  0.00  0.00    +0.024 A 
ATOM      5  C   UNL     1      -1.068  -1.964   0.494  0.00  0.00    +0.143 A 
ATOM      6  N   UNL     1      -1.265  -0.710   0.825  0.00  0.00    -0.179 NA
ATOM      7  C   UNL     1      -0.542  -3.143  -1.785  0.00  0.00    +0.003 A 
ATOM      8  C   UNL     1      -0.078  -2.835  -3.061  0.00  0.00    -0.014 A 
ATOM      9  C   UNL     1       0.166  -3.863  -3.967  0.00  0.00    +0.054 A 
ATOM     10  C   UNL     1      -0.009  -5.206  -3.571  0.00  0.00    +0.013 A 
ATOM     11  C   UNL     1       0.327  -6.020  -4.742  0.00  0.00    +0.008 A 
ATOM     12  C   UNL     1       0.332  -7.400  -4.944  0.00  0.00    +0.016 A 
ATOM     13  C   UNL     1       0.711  -7.846  -6.200  0.00  0.00    -0.018 A 
ATOM     14  C   UNL     1       1.068  -6.968  -7.208  0.00  0.00    +0.008 A 
ATOM     15  C   UNL     1       1.069  -5.595  -7.025  0.00  0.00    +0.027 A 
ATOM     16  C   UNL     1       0.691  -5.122  -5.770  0.00  0.00    +0.050 A 
ATOM     17  N   UNL     1       0.591  -3.843  -5.284  0.00  0.00    -0.337 N 
ATOM     18  C   UNL     1      -0.421  -5.504  -2.282  0.00  0.00    -0.008 A 
ATOM     19  C   UNL     1      -0.689  -4.479  -1.375  0.00  0.00    +0.050 A 
ATOM     20  C   UNL     1      -1.095  -5.087  -0.098  0.00  0.00    +0.245 C 
ATOM     21  O   UNL     1      -1.390  -4.465   0.904  0.00  0.00    -0.270 OA
ATOM     22  N   UNL     1      -1.094  -6.427  -0.196  0.00  0.00    -0.307 N 
ATOM     23  C   UNL     1      -0.681  -6.799  -1.554  0.00  0.00    +0.141 C 
ATOM     24  C   UNL     1       0.207  -1.412  -3.457  0.00  0.00    +0.044 C 
ATOM     25  C   UNL     1      -0.775  -0.422  -2.835  0.00  0.00    +0.060 C 
ATOM     26  H   UNL     1      -1.328  -7.046   0.514  0.00  0.00    +0.149 HD
ENDROOT
BRANCH  13  27
ATOM     27  C   UNL     1       0.736  -9.328  -6.475  0.00  0.00    +0.148 C 
ATOM     28  C   UNL     1      -0.533  -9.727  -7.233  0.00  0.00    +0.036 C 
ATOM     29  C   UNL     1      -0.473 -11.222  -7.561  0.00  0.00    +0.005 C 
ATOM     30  C   UNL     1       0.798 -11.506  -8.367  0.00  0.00    +0.028 C 
ATOM     31  C   UNL     1       2.016 -11.037  -7.565  0.00  0.00    +0.160 C 
ATOM     32  O   UNL     1       1.882  -9.646  -7.267  0.00  0.00    -0.372 OA
ENDBRANCH  13  27
BRANCH  17  33
ATOM     33  C   UNL     1       0.892  -2.630  -6.050  0.00  0.00    +0.150 C 
BRANCH  33  34
ATOM     34  C   UNL     1      -0.402  -2.065  -6.639  0.00  0.00    +0.177 C 
BRANCH  34  35
ATOM     35  O   UNL     1      -0.109  -0.882  -7.385  0.00  0.00    -0.393 OA
ATOM     36  H   UNL     1      -0.885  -0.469  -7.788  0.00  0.00    +0.209 HD
ENDBRANCH  34  35
ENDBRANCH  33  34
ENDBRANCH  17  33
TORSDOF 4
