REMARK  Name = CHEMBL406404
REMARK  8 active torsions:
REMARK  status: ('A' for Active; 'I' for Inactive)
REMARK    1  A    between atoms: C_1  and  C_2
REMARK    2  A    between atoms: C_6  and  N_8
REMARK    3  A    between atoms: N_11  and  C_12
REMARK    4  A    between atoms: C_15  and  C_18
REMARK    5  A    between atoms: C_21  and  O_28
REMARK    6  A    between atoms: O_28  and  C_29
REMARK    7  A    between atoms: C_29  and  C_30
REMARK    8  A    between atoms: C_30  and  N_31
REMARK                            x       y       z     vdW  Elec       q    Type
REMARK                         _______ _______ _______ _____ _____    ______ ____
ROOT
ATOM      1  C   UNL     1       0.009  -0.059   9.647  0.00  0.00    -0.003 A 
ATOM      2  C   UNL     1       0.701   1.138   9.789  0.00  0.00    +0.013 A 
ATOM      3  C   UNL     1       0.688   1.812  10.997  0.00  0.00    +0.050 A 
ATOM      4  C   UNL     1      -0.011   1.306  12.080  0.00  0.00    +0.166 A 
ATOM      5  C   UNL     1      -0.712   0.107  11.961  0.00  0.00    +0.211 A 
ATOM      6  C   UNL     1      -0.709  -0.578  10.740  0.00  0.00    +0.074 A 
ATOM      7  C   UNL     1      -1.530  -1.780  10.933  0.00  0.00    +0.167 A 
ATOM      8  N   UNL     1      -1.961  -1.761  12.164  0.00  0.00    -0.062 NA
ATOM      9  O   UNL     1      -1.464  -0.612  12.821  0.00  0.00    -0.349 OA
ATOM     10  N   UNL     1      -1.799  -2.755   9.982  0.00  0.00    -0.340 N 
ATOM     11  H   UNL     1      -1.335  -2.743   9.130  0.00  0.00    +0.144 HD
ATOM     12  H   UNL     1      -2.450  -3.450  10.170  0.00  0.00    +0.144 HD
ENDROOT
BRANCH   1  16
ATOM     13  C   UNL     1       0.050  -2.131   5.934  0.00  0.00    +0.035 A 
ATOM     14  C   UNL     1       1.247  -1.836   6.577  0.00  0.00    +0.024 A 
ATOM     15  C   UNL     1       1.236  -1.165   7.781  0.00  0.00    +0.010 A 
ATOM     16  C   UNL     1       0.024  -0.780   8.354  0.00  0.00    -0.017 A 
ATOM     17  C   UNL     1      -1.176  -1.077   7.706  0.00  0.00    +0.010 A 
ATOM     18  C   UNL     1      -1.159  -1.744   6.500  0.00  0.00    +0.024 A 
BRANCH  13  22
ATOM     19  N   UNL     1       1.080  -4.332   3.262  0.00  0.00    -0.267 N 
ATOM     20  C   UNL     1       1.003  -3.749   4.475  0.00  0.00    +0.308 C 
ATOM     21  O   UNL     1       1.780  -4.068   5.354  0.00  0.00    -0.252 OA
ATOM     22  N   UNL     1       0.064  -2.812   4.713  0.00  0.00    -0.269 N 
ATOM     23  H   UNL     1       0.500  -4.036   2.544  0.00  0.00    +0.156 HD
ATOM     24  H   UNL     1      -0.603  -2.611   4.038  0.00  0.00    +0.156 HD
BRANCH  19  30
ATOM     25  C   UNL     1       5.426  -6.417   4.237  0.00  0.00    +0.044 C 
ATOM     26  C   UNL     1       4.112  -6.402   3.498  0.00  0.00    -0.049 A 
ATOM     27  C   UNL     1       3.813  -7.410   2.600  0.00  0.00    +0.006 A 
ATOM     28  C   UNL     1       2.609  -7.401   1.921  0.00  0.00    +0.040 A 
ATOM     29  C   UNL     1       1.700  -6.381   2.137  0.00  0.00    +0.145 A 
ATOM     30  C   UNL     1       1.998  -5.367   3.040  0.00  0.00    +0.070 A 
ATOM     31  C   UNL     1       3.206  -5.384   3.724  0.00  0.00    +0.029 A 
ATOM     32  F   UNL     1       0.524  -6.371   1.473  0.00  0.00    -0.204 F 
ENDBRANCH  19  30
ENDBRANCH  13  22
ENDBRANCH   1  16
BRANCH   4  33
ATOM     33  O   UNL     1      -0.013   1.980  13.261  0.00  0.00    -0.487 OA
BRANCH  33  34
ATOM     34  C   UNL     1       0.727   3.201  13.312  0.00  0.00    +0.244 C 
BRANCH  34  35
ATOM     35  C   UNL     1       0.608   3.812  14.710  0.00  0.00    +0.125 C 
BRANCH  35  36
ATOM     36  N   UNL     1       1.250   2.923  15.688  0.00  0.00    -0.295 NA
ATOM     37  C   UNL     1       0.779   3.213  17.051  0.00  0.00    +0.112 C 
ATOM     38  C   UNL     1       1.427   2.228  18.028  0.00  0.00    +0.175 C 
ATOM     39  O   UNL     1       2.849   2.318  17.916  0.00  0.00    -0.377 OA
ATOM     40  C   UNL     1       3.342   2.041  16.602  0.00  0.00    +0.175 C 
ATOM     41  C   UNL     1       2.714   3.024  15.610  0.00  0.00    +0.112 C 
ENDBRANCH  35  36
ENDBRANCH  34  35
ENDBRANCH  33  34
ENDBRANCH   4  33
TORSDOF 7
