REMARK  Name = CHEMBL420528
REMARK  4 active torsions:
REMARK  status: ('A' for Active; 'I' for Inactive)
REMARK    1  A    between atoms: C_8  and  C_12
REMARK    2  A    between atoms: C_16  and  S_22
REMARK    3  A    between atoms: S_22  and  N_25
REMARK    4  A    between atoms: N_25  and  C_26
REMARK                            x       y       z     vdW  Elec       q    Type
REMARK                         _______ _______ _______ _____ _____    ______ ____
ROOT
ATOM      1  C   UNL     1       2.539  -4.224  -0.043  0.00  0.00    +0.053 A 
ATOM      2  C   UNL     1       3.045  -4.992   0.956  0.00  0.00    +0.036 A 
ATOM      3  C   UNL     1       2.909  -6.384   0.534  0.00  0.00    +0.002 A 
ATOM      4  C   UNL     1       3.240  -7.610   1.120  0.00  0.00    +0.038 A 
ATOM      5  C   UNL     1       2.978  -8.773   0.453  0.00  0.00    +0.106 A 
ATOM      6  C   UNL     1       2.385  -8.748  -0.802  0.00  0.00    +0.030 A 
ATOM      7  C   UNL     1       2.049  -7.552  -1.398  0.00  0.00    +0.028 A 
ATOM      8  C   UNL     1       2.306  -6.354  -0.738  0.00  0.00    +0.047 A 
ATOM      9  N   UNL     1       2.088  -5.033  -1.061  0.00  0.00    -0.354 N 
ATOM     10  H   UNL     1       1.680  -4.719  -1.883  0.00  0.00    +0.166 HD
ENDROOT
BRANCH   1  18
ATOM     11  C   UNL     1      -0.016   1.361   0.009  0.00  0.00    +0.001 A 
ATOM     12  C   UNL     1       1.169   2.083   0.002  0.00  0.00    +0.002 A 
ATOM     13  C   UNL     1       2.385   1.435  -0.013  0.00  0.00    +0.026 A 
ATOM     14  C   UNL     1       2.431   0.043  -0.021  0.00  0.00    +0.049 A 
ATOM     15  C   UNL     1       1.228  -0.686  -0.013  0.00  0.00    -0.001 A 
ATOM     16  C   UNL     1       0.002  -0.004   0.002  0.00  0.00    +0.010 A 
ATOM     17  C   UNL     1       1.257  -2.104  -0.021  0.00  0.00    +0.025 A 
ATOM     18  C   UNL     1       2.476  -2.749  -0.035  0.00  0.00    +0.063 A 
ATOM     19  C   UNL     1       3.709  -1.954  -0.043  0.00  0.00    +0.258 A 
ATOM     20  N   UNL     1       3.647  -0.609  -0.036  0.00  0.00    -0.322 N 
ATOM     21  O   UNL     1       4.792  -2.512  -0.056  0.00  0.00    -0.267 OA
ATOM     22  H   UNL     1       4.467  -0.092  -0.041  0.00  0.00    +0.169 HD
ENDBRANCH   1  18
BRANCH   5  23
ATOM     23  S   UNL     1       3.396 -10.317   1.192  0.00  0.00    +0.059 S 
ATOM     24  O   UNL     1       3.546 -11.248   0.129  0.00  0.00    -0.153 OA
ATOM     25  O   UNL     1       4.435 -10.053   2.125  0.00  0.00    -0.153 OA
BRANCH  23  26
ATOM     26  N   UNL     1       2.083 -10.810   2.072  0.00  0.00    -0.189 NA
ATOM     27  H   UNL     1       2.146 -10.883   3.037  0.00  0.00    +0.148 HD
BRANCH  26  28
ATOM     28  C   UNL     1       0.827 -11.138   1.392  0.00  0.00    +0.058 C 
ATOM     29  C   UNL     1       0.694 -12.669   1.221  0.00  0.00    -0.001 C 
ATOM     30  C   UNL     1      -0.192 -13.077   2.425  0.00  0.00    -0.081 C 
ATOM     31  N   UNL     1      -1.155 -11.951   2.535  0.00  0.00    +0.380 N 
ATOM     32  C   UNL     1      -0.374 -10.725   2.262  0.00  0.00    -0.062 C 
ATOM     33  H   UNL     1      -1.891 -12.055   1.853  0.00  0.00    -0.086 HD
ATOM     34  H   UNL     1      -1.543 -11.916   3.466  0.00  0.00    -0.086 HD
ENDBRANCH  26  28
ENDBRANCH  23  26
ENDBRANCH   5  23
TORSDOF 4
