REMARK  Name = CHEMBL459478
REMARK  9 active torsions:
REMARK  status: ('A' for Active; 'I' for Inactive)
REMARK    1  A    between atoms: C_1  and  C_2
REMARK    2  A    between atoms: C_2  and  C_3
REMARK    3  A    between atoms: C_2  and  N_4
REMARK    4  A    between atoms: C_6  and  C_9
REMARK    5  A    between atoms: C_14  and  O_18
REMARK    6  A    between atoms: O_18  and  C_19
REMARK    7  A    between atoms: C_22  and  N_26
REMARK    8  A    between atoms: C_27  and  C_29
REMARK    9  A    between atoms: N_32  and  C_35
REMARK                            x       y       z     vdW  Elec       q    Type
REMARK                         _______ _______ _______ _____ _____    ______ ____
ROOT
ATOM      1  C   UNL     1      -1.417  -5.886   8.580  0.00  0.00    +0.164 A 
ATOM      2  C   UNL     1      -0.456  -6.090   9.559  0.00  0.00    +0.051 A 
ATOM      3  C   UNL     1      -0.743  -6.876  10.657  0.00  0.00    +0.027 A 
ATOM      4  C   UNL     1      -1.995  -7.465  10.782  0.00  0.00    +0.036 A 
ATOM      5  C   UNL     1      -2.958  -7.262   9.803  0.00  0.00    +0.065 A 
ATOM      6  C   UNL     1      -2.672  -6.469   8.706  0.00  0.00    +0.167 A 
ATOM      7  F   UNL     1      -3.610  -6.266   7.756  0.00  0.00    -0.202 F 
ENDROOT
BRANCH   4   8
ATOM      8  N   UNL     1      -2.285  -8.264  11.895  0.00  0.00    -0.285 N 
ATOM      9  C   UNL     1      -1.770  -7.952  13.101  0.00  0.00    +0.229 C 
ATOM     10  O   UNL     1      -0.996  -7.024  13.208  0.00  0.00    -0.275 OA
ATOM     11  H   UNL     1      -2.858  -9.041  11.798  0.00  0.00    +0.155 HD
BRANCH   9  12
ATOM     12  C   UNL     1      -2.154  -8.758  14.315  0.00  0.00    +0.163 C 
ATOM     13  C   UNL     1      -1.513  -8.157  15.588  0.00  0.00    +0.041 C 
ATOM     14  C   UNL     1      -2.625  -8.382  16.636  0.00  0.00    +0.115 C 
ATOM     15  N   UNL     1      -3.877  -8.443  15.873  0.00  0.00    -0.271 N 
ATOM     16  C   UNL     1      -3.642  -8.659  14.567  0.00  0.00    +0.232 C 
ATOM     17  O   UNL     1      -4.499  -8.760  13.714  0.00  0.00    -0.274 OA
BRANCH  15  18
ATOM     18  C   UNL     1      -5.151  -8.296  16.432  0.00  0.00    +0.036 A 
ATOM     19  C   UNL     1      -6.282  -8.498  15.651  0.00  0.00    +0.023 A 
ATOM     20  C   UNL     1      -7.538  -8.351  16.206  0.00  0.00    +0.002 A 
ATOM     21  C   UNL     1      -7.671  -8.005  17.538  0.00  0.00    +0.000 A 
ATOM     22  C   UNL     1      -6.547  -7.803  18.318  0.00  0.00    +0.002 A 
ATOM     23  C   UNL     1      -5.288  -7.954  17.771  0.00  0.00    +0.023 A 
ENDBRANCH  15  18
ENDBRANCH   9  12
ENDBRANCH   4   8
BRANCH   1  24
ATOM     24  O   UNL     1      -1.134  -5.111   7.499  0.00  0.00    -0.452 OA
BRANCH  24  30
ATOM     25  C   UNL     1      -0.328  -1.405   4.459  0.00  0.00    +0.040 A 
ATOM     26  C   UNL     1      -0.999  -0.800   5.473  0.00  0.00    +0.046 A 
ATOM     27  C   UNL     1      -1.425  -1.554   6.583  0.00  0.00    +0.082 A 
ATOM     28  C   UNL     1      -1.101  -2.928   6.540  0.00  0.00    +0.080 A 
ATOM     29  S   UNL     1      -0.248  -3.105   4.994  0.00  0.00    -0.082 S 
ATOM     30  C   UNL     1      -1.453  -3.793   7.558  0.00  0.00    +0.146 A 
ATOM     31  C   UNL     1      -2.148  -3.270   8.648  0.00  0.00    +0.067 A 
ATOM     32  C   UNL     1      -2.446  -1.918   8.652  0.00  0.00    +0.115 A 
ATOM     33  N   UNL     1      -2.099  -1.121   7.673  0.00  0.00    -0.254 NA
BRANCH  25  36
ATOM     34  N   UNL     1       1.168  -0.528   1.274  0.00  0.00    -0.335 N 
ATOM     35  C   UNL     1       0.864  -1.460   2.225  0.00  0.00    +0.114 A 
ATOM     36  C   UNL     1       0.201  -0.804   3.216  0.00  0.00    +0.071 A 
ATOM     37  N   UNL     1       0.111   0.495   2.858  0.00  0.00    -0.345 N 
ATOM     38  C   UNL     1       0.692   0.661   1.704  0.00  0.00    +0.174 A 
ATOM     39  H   UNL     1      -0.314   1.194   3.380  0.00  0.00    +0.167 HD
BRANCH  34  41
ATOM     40  C   UNL     1       0.991  -0.385  -1.162  0.00  0.00    +0.030 C 
ATOM     41  C   UNL     1       1.884  -0.772   0.019  0.00  0.00    +0.082 C 
ATOM     42  C   UNL     1       3.162   0.069  -0.011  0.00  0.00    +0.030 C 
ENDBRANCH  34  41
ENDBRANCH  25  36
ENDBRANCH  24  30
ENDBRANCH   1  24
TORSDOF 7
