REMARK  Name = CHEMBL270277
REMARK  8 active torsions:
REMARK  status: ('A' for Active; 'I' for Inactive)
REMARK    1  A    between atoms: C_1  and  O_2
REMARK    2  A    between atoms: O_2  and  C_3
REMARK    3  A    between atoms: C_6  and  N_15
REMARK    4  A    between atoms: C_12  and  O_13
REMARK    5  A    between atoms: O_13  and  C_14
REMARK    6  A    between atoms: N_15  and  C_16
REMARK    7  A    between atoms: C_25  and  C_26
REMARK    8  A    between atoms: N_28  and  C_29
REMARK                            x       y       z     vdW  Elec       q    Type
REMARK                         _______ _______ _______ _____ _____    ______ ____
ROOT
ATOM      1  C   UNL     1       3.131   2.498  -5.007  0.00  0.00    +0.032 A 
ATOM      2  C   UNL     1       3.764   1.900  -6.103  0.00  0.00    +0.024 A 
ATOM      3  C   UNL     1       4.300   2.656  -7.099  0.00  0.00    +0.011 A 
ATOM      4  C   UNL     1       4.221   4.054  -7.035  0.00  0.00    -0.006 A 
ATOM      5  C   UNL     1       3.583   4.671  -5.932  0.00  0.00    -0.015 A 
ATOM      6  C   UNL     1       3.032   3.870  -4.918  0.00  0.00    +0.031 A 
ATOM      7  C   UNL     1       3.504   6.074  -5.871  0.00  0.00    +0.008 A 
ATOM      8  C   UNL     1       4.039   6.833  -6.868  0.00  0.00    +0.001 A 
ATOM      9  C   UNL     1       4.669   6.247  -7.959  0.00  0.00    +0.014 A 
ATOM     10  C   UNL     1       4.770   4.867  -8.059  0.00  0.00    +0.045 A 
ENDROOT
BRANCH  10  11
ATOM     11  C   UNL     1       5.440   4.251  -9.220  0.00  0.00    +0.249 C 
ATOM     12  O   UNL     1       5.409   3.045  -9.371  0.00  0.00    -0.270 OA
ATOM     13  N   UNL     1       6.087   5.026 -10.113  0.00  0.00    -0.281 N 
ATOM     14  H   UNL     1       6.072   5.991 -10.019  0.00  0.00    +0.155 HD
BRANCH  13  15
ATOM     15  C   UNL     1       6.780   4.437 -11.176  0.00  0.00    +0.034 A 
ATOM     16  C   UNL     1       7.974   4.991 -11.619  0.00  0.00    +0.025 A 
ATOM     17  C   UNL     1       8.657   4.408 -12.669  0.00  0.00    +0.022 A 
ATOM     18  C   UNL     1       8.152   3.273 -13.279  0.00  0.00    +0.041 A 
ATOM     19  C   UNL     1       6.962   2.720 -12.840  0.00  0.00    +0.022 A 
ATOM     20  C   UNL     1       6.278   3.295 -11.787  0.00  0.00    +0.025 A 
ATOM     21 CL   UNL     1       9.012   2.544 -14.599  0.00  0.00    -0.084 Cl
ENDBRANCH  13  15
ENDBRANCH  10  11
BRANCH   1  22
ATOM     22  N   UNL     1       2.590   1.698  -3.998  0.00  0.00    -0.314 N 
ATOM     23  H   UNL     1       1.735   1.929  -3.603  0.00  0.00    +0.152 HD
BRANCH  22  27
ATOM     24  C   UNL     1       0.841  -1.038  -1.300  0.00  0.00    +0.162 A 
ATOM     25  C   UNL     1       1.382  -0.138  -2.172  0.00  0.00    +0.061 A 
ATOM     26  C   UNL     1       2.682  -0.339  -2.658  0.00  0.00    +0.023 A 
ATOM     27  C   UNL     1       3.276   0.573  -3.562  0.00  0.00    +0.042 A 
ATOM     28  C   UNL     1       4.565   0.308  -3.998  0.00  0.00    +0.041 A 
ATOM     29  C   UNL     1       5.226  -0.825  -3.544  0.00  0.00    +0.085 A 
ATOM     30  N   UNL     1       4.664  -1.665  -2.706  0.00  0.00    -0.360 N 
ATOM     31  C   UNL     1       3.423  -1.471  -2.243  0.00  0.00    +0.052 A 
ATOM     32  C   UNL     1       2.839  -2.380  -1.345  0.00  0.00    +0.075 A 
ATOM     33  C   UNL     1       1.573  -2.158  -0.882  0.00  0.00    +0.163 A 
ATOM     34  H   UNL     1       5.161  -2.445  -2.414  0.00  0.00    +0.165 HD
BRANCH  24  36
ATOM     35  C   UNL     1      -1.114   0.316  -1.291  0.00  0.00    +0.277 C 
ATOM     36  O   UNL     1      -0.419  -0.844  -0.828  0.00  0.00    -0.491 OA
ENDBRANCH  24  36
BRANCH  33  37
ATOM     37  O   UNL     1       1.015  -3.038  -0.010  0.00  0.00    -0.491 OA
ATOM     38  C   UNL     1       1.810  -4.160   0.379  0.00  0.00    +0.277 C 
ENDBRANCH  33  37
ENDBRANCH  22  27
ENDBRANCH   1  22
TORSDOF 6
