REMARK  Name = CHEMBL233224
REMARK  6 active torsions:
REMARK  status: ('A' for Active; 'I' for Inactive)
REMARK    1  A    between atoms: C_1  and  N_2
REMARK    2  A    between atoms: N_5  and  C_8
REMARK    3  A    between atoms: C_8  and  C_9
REMARK    4  A    between atoms: C_9  and  C_10
REMARK    5  A    between atoms: C_13  and  N_16
REMARK    6  A    between atoms: C_21  and  C_23
REMARK                            x       y       z     vdW  Elec       q    Type
REMARK                         _______ _______ _______ _____ _____    ______ ____
ROOT
ATOM      1  N   UNL     1       0.215 -10.257   2.185  0.00  0.00    -0.284 N 
ATOM      2  C   UNL     1      -0.957 -10.989   2.076  0.00  0.00    +0.220 A 
ATOM      3  N   UNL     1      -2.106 -10.349   1.918  0.00  0.00    -0.221 NA
ATOM      4  C   UNL     1      -3.248 -11.012   1.810  0.00  0.00    +0.136 A 
ATOM      5  C   UNL     1      -3.236 -12.394   1.865  0.00  0.00    +0.085 A 
ATOM      6  C   UNL     1      -2.006 -13.044   2.033  0.00  0.00    +0.096 A 
ATOM      7  N   UNL     1      -0.897 -12.311   2.129  0.00  0.00    -0.213 NA
ATOM      8 CL   UNL     1      -4.709 -13.302   1.728  0.00  0.00    -0.080 Cl
ATOM      9  H   UNL     1       1.070 -10.712   2.221  0.00  0.00    +0.155 HD
ENDROOT
BRANCH   6  10
ATOM     10  C   UNL     1      -1.939 -14.520   2.098  0.00  0.00    +0.027 A 
ATOM     11  C   UNL     1      -2.533 -15.397   1.249  0.00  0.00    +0.093 A 
ATOM     12  N   UNL     1      -2.244 -16.672   1.628  0.00  0.00    -0.360 N 
ATOM     13  H   UNL     1      -2.557 -17.470   1.174  0.00  0.00    +0.165 HD
ATOM     14  C   UNL     1      -1.444 -16.667   2.750  0.00  0.00    +0.047 A 
ATOM     15  C   UNL     1      -1.210 -15.324   3.093  0.00  0.00    +0.009 A 
ATOM     16  C   UNL     1      -0.418 -15.013   4.196  0.00  0.00    +0.010 A 
ATOM     17  C   UNL     1       0.136 -16.027   4.945  0.00  0.00    +0.001 A 
ATOM     18  C   UNL     1      -0.090 -17.353   4.606  0.00  0.00    +0.002 A 
ATOM     19  C   UNL     1      -0.879 -17.676   3.523  0.00  0.00    +0.026 A 
ENDBRANCH   6  10
BRANCH   1  23
ATOM     20  C   UNL     1       0.061  -6.098   2.356  0.00  0.00    -0.049 A 
ATOM     21  C   UNL     1      -0.958  -6.849   2.911  0.00  0.00    +0.005 A 
ATOM     22  C   UNL     1      -0.910  -8.228   2.856  0.00  0.00    +0.023 A 
ATOM     23  C   UNL     1       0.163  -8.861   2.242  0.00  0.00    +0.034 A 
ATOM     24  C   UNL     1       1.185  -8.103   1.685  0.00  0.00    +0.023 A 
ATOM     25  C   UNL     1       1.129  -6.724   1.739  0.00  0.00    +0.005 A 
BRANCH  20  26
ATOM     26  C   UNL     1       0.006  -4.593   2.418  0.00  0.00    +0.016 C 
BRANCH  26  27
ATOM     27  C   UNL     1      -0.723  -4.058   1.184  0.00  0.00    -0.074 C 
BRANCH  27  32
ATOM     28  C   UNL     1      -0.321   1.466   0.151  0.00  0.00    +0.104 C 
ATOM     29  N   UNL     1      -0.291  -0.002   0.140  0.00  0.00    -0.309 NA
ATOM     30  C   UNL     1      -1.651  -0.557   0.197  0.00  0.00    +0.065 C 
ATOM     31  C   UNL     1      -1.579  -2.084   0.124  0.00  0.00    -0.063 C 
ATOM     32  N   UNL     1      -0.776  -2.591   1.245  0.00  0.00    +0.382 N 
ATOM     33  C   UNL     1       0.586  -2.048   1.160  0.00  0.00    -0.063 C 
ATOM     34  C   UNL     1       0.531  -0.521   1.242  0.00  0.00    +0.065 C 
ATOM     35  H   UNL     1      -1.198  -2.306   2.116  0.00  0.00    -0.082 HD
ENDBRANCH  27  32
ENDBRANCH  26  27
ENDBRANCH  20  26
ENDBRANCH   1  23
TORSDOF 5
