REMARK  Name = CHEMBL378024
REMARK  8 active torsions:
REMARK  status: ('A' for Active; 'I' for Inactive)
REMARK    1  A    between atoms: C_1  and  C_2
REMARK    2  A    between atoms: C_2  and  C_3
REMARK    3  A    between atoms: C_2  and  C_4
REMARK    4  A    between atoms: C_2  and  N_5
REMARK    5  A    between atoms: N_8  and  C_9
REMARK    6  A    between atoms: C_15  and  C_19
REMARK    7  A    between atoms: C_25  and  N_29
REMARK    8  A    between atoms: C_32  and  N_35
REMARK                            x       y       z     vdW  Elec       q    Type
REMARK                         _______ _______ _______ _____ _____    ______ ____
ROOT
ATOM      1  C   UNL     1       6.337  -1.175  -6.723  0.00  0.00    +0.160 A 
ATOM      2  N   UNL     1       7.178  -1.361  -7.788  0.00  0.00    -0.337 N 
ATOM      3  H   UNL     1       8.077  -1.010  -7.880  0.00  0.00    +0.167 HD
ATOM      4  C   UNL     1       6.503  -2.144  -8.709  0.00  0.00    +0.067 A 
ATOM      5  C   UNL     1       6.830  -2.653  -9.958  0.00  0.00    +0.029 A 
ATOM      6  C   UNL     1       5.917  -3.420 -10.648  0.00  0.00    +0.025 A 
ATOM      7  C   UNL     1       4.664  -3.689 -10.100  0.00  0.00    +0.032 A 
ATOM      8  C   UNL     1       4.323  -3.189  -8.858  0.00  0.00    +0.053 A 
ATOM      9  C   UNL     1       5.242  -2.410  -8.148  0.00  0.00    +0.091 A 
ATOM     10  N   UNL     1       5.204  -1.799  -6.939  0.00  0.00    -0.226 NA
ENDROOT
BRANCH   1  17
ATOM     11  C   UNL     1       3.930  -0.221  -2.829  0.00  0.00    +0.036 A 
ATOM     12  C   UNL     1       4.654   0.570  -1.938  0.00  0.00    +0.025 A 
ATOM     13  C   UNL     1       5.920   0.980  -2.239  0.00  0.00    +0.029 A 
ATOM     14  C   UNL     1       6.505   0.611  -3.449  0.00  0.00    +0.067 A 
ATOM     15  C   UNL     1       5.782  -0.187  -4.354  0.00  0.00    +0.032 A 
ATOM     16  C   UNL     1       4.490  -0.606  -4.032  0.00  0.00    +0.035 A 
ATOM     17  C   UNL     1       6.661  -0.397  -5.512  0.00  0.00    +0.135 A 
ATOM     18  N   UNL     1       7.787   0.235  -5.272  0.00  0.00    -0.170 NA
ATOM     19  N   UNL     1       7.727   0.860  -4.023  0.00  0.00    -0.276 N 
ATOM     20  H   UNL     1       8.437   1.388  -3.625  0.00  0.00    +0.189 HD
BRANCH  11  24
ATOM     21  N   UNL     1       0.543  -0.171  -1.566  0.00  0.00    -0.294 N 
ATOM     22  C   UNL     1       1.820   0.188  -1.805  0.00  0.00    +0.304 C 
ATOM     23  O   UNL     1       2.240   1.252  -1.393  0.00  0.00    -0.252 OA
ATOM     24  N   UNL     1       2.632  -0.633  -2.501  0.00  0.00    -0.269 N 
ATOM     25  H   UNL     1       0.208  -1.020  -1.895  0.00  0.00    +0.151 HD
ATOM     26  H   UNL     1       2.317  -1.509  -2.775  0.00  0.00    +0.156 HD
BRANCH  21  28
ATOM     27  C   UNL     1      -0.462   2.059  -1.542  0.00  0.00    +0.031 C 
ATOM     28  C   UNL     1      -0.339   0.721  -0.810  0.00  0.00    +0.028 C 
ATOM     29  C   UNL     1       0.246   0.955   0.584  0.00  0.00    +0.031 C 
ATOM     30  C   UNL     1      -1.723   0.082  -0.681  0.00  0.00    +0.031 C 
ENDBRANCH  21  28
ENDBRANCH  11  24
ENDBRANCH   1  17
BRANCH   7  31
ATOM     31  N   UNL     1       3.746  -4.470 -10.812  0.00  0.00    -0.330 N 
ATOM     32  C   UNL     1       2.377  -4.658 -10.313  0.00  0.00    +0.103 C 
ATOM     33  C   UNL     1       1.391  -4.268 -11.418  0.00  0.00    +0.004 C 
ATOM     34  C   UNL     1       1.712  -5.062 -12.686  0.00  0.00    -0.066 C 
ATOM     35  C   UNL     1       3.127  -4.722 -13.159  0.00  0.00    +0.004 C 
ATOM     36  C   UNL     1       4.131  -5.112 -12.076  0.00  0.00    +0.103 C 
BRANCH  34  37
ATOM     37  N   UNL     1       0.748  -4.715 -13.739  0.00  0.00    +0.382 N 
ATOM     38  C   UNL     1      -0.610  -5.035 -13.281  0.00  0.00    -0.078 C 
ATOM     39  C   UNL     1      -1.625  -4.601 -14.341  0.00  0.00    -0.019 C 
ATOM     40  C   UNL     1      -1.337  -5.343 -15.649  0.00  0.00    -0.004 C 
ATOM     41  C   UNL     1       0.106  -5.061 -16.078  0.00  0.00    -0.019 C 
ATOM     42  C   UNL     1       1.057  -5.478 -14.954  0.00  0.00    -0.078 C 
ATOM     43  H   UNL     1       0.809  -3.728 -13.938  0.00  0.00    -0.081 HD
ENDBRANCH  34  37
ENDBRANCH   7  31
TORSDOF 5
