REMARK  Name = CHEMBL379896
REMARK  6 active torsions:
REMARK  status: ('A' for Active; 'I' for Inactive)
REMARK    1  A    between atoms: C_1  and  O_2
REMARK    2  A    between atoms: O_2  and  C_3
REMARK    3  A    between atoms: C_3  and  C_4
REMARK    4  A    between atoms: C_4  and  N_5
REMARK    5  A    between atoms: C_13  and  N_17
REMARK    6  A    between atoms: C_21  and  C_23
REMARK                            x       y       z     vdW  Elec       q    Type
REMARK                         _______ _______ _______ _____ _____    ______ ____
ROOT
ATOM      1  N   UNL     1      -0.799  -2.452  -1.156  0.00  0.00    +0.383 N 
ATOM      2  C   UNL     1      -1.553  -1.853  -0.047  0.00  0.00    -0.059 C 
ATOM      3  C   UNL     1      -3.048  -2.123  -0.243  0.00  0.00    +0.088 C 
ATOM      4  N   UNL     1      -3.244  -3.573  -0.398  0.00  0.00    -0.319 N 
ATOM      5  C   UNL     1      -2.409  -4.285  -1.378  0.00  0.00    +0.088 C 
ATOM      6  C   UNL     1      -0.943  -3.913  -1.128  0.00  0.00    -0.059 C 
ATOM      7  C   UNL     1      -4.189  -4.250   0.358  0.00  0.00    +0.126 A 
ATOM      8  C   UNL     1      -5.048  -3.553   1.202  0.00  0.00    +0.087 A 
ATOM      9  C   UNL     1      -5.978  -4.278   1.940  0.00  0.00    +0.129 A 
ATOM     10  N   UNL     1      -6.013  -5.603   1.813  0.00  0.00    -0.220 NA
ATOM     11  C   UNL     1      -5.182  -6.226   1.003  0.00  0.00    +0.225 A 
ATOM     12  N   UNL     1      -4.291  -5.575   0.283  0.00  0.00    -0.221 NA
ATOM     13  H   UNL     1      -1.153  -2.096  -2.031  0.00  0.00    -0.082 HD
ENDROOT
BRANCH   9  14
ATOM     14  N   UNL     1      -6.858  -3.629   2.797  0.00  0.00    -0.279 N 
ATOM     15  C   UNL     1      -7.705  -4.365   3.603  0.00  0.00    +0.165 A 
ATOM     16  N   UNL     1      -7.875  -5.673   3.630  0.00  0.00    -0.232 NA
ATOM     17  C   UNL     1      -8.722  -6.237   4.457  0.00  0.00    +0.139 A 
ATOM     18  C   UNL     1      -9.424  -5.383   5.296  0.00  0.00    +0.110 A 
ATOM     19  S   UNL     1      -8.759  -3.805   4.790  0.00  0.00    -0.042 S 
ATOM     20  H   UNL     1      -6.878  -2.660   2.829  0.00  0.00    +0.155 HD
BRANCH  18  21
ATOM     21  C   UNL     1     -10.405  -5.685   6.295  0.00  0.00    +0.108 C 
ATOM     22  N   UNL     1     -11.183  -5.924   7.088  0.00  0.00    -0.190 NA
ENDBRANCH  18  21
ENDBRANCH   9  14
BRANCH   1  23
ATOM     23  C   UNL     1       0.622  -2.099  -1.026  0.00  0.00    -0.050 C 
BRANCH  23  24
ATOM     24  C   UNL     1       1.381  -2.579  -2.264  0.00  0.00    +0.141 C 
BRANCH  24  26
ATOM     25  C   UNL     1       1.543  -2.264  -4.635  0.00  0.00    +0.193 C 
ATOM     26  O   UNL     1       0.896  -1.888  -3.418  0.00  0.00    -0.385 OA
ENDBRANCH  24  26
ENDBRANCH  23  24
ENDBRANCH   1  23
TORSDOF 5
