REMARK  Name = CHEMBL331465
REMARK  6 active torsions:
REMARK  status: ('A' for Active; 'I' for Inactive)
REMARK    1  A    between atoms: C_4  and  C_7
REMARK    2  A    between atoms: C_14  and  C_16
REMARK    3  A    between atoms: C_19  and  O_22
REMARK    4  A    between atoms: O_22  and  C_23
REMARK    5  A    between atoms: C_23  and  C_24
REMARK    6  A    between atoms: C_24  and  N_25
REMARK                            x       y       z     vdW  Elec       q    Type
REMARK                         _______ _______ _______ _____ _____    ______ ____
ROOT
ATOM      1  C   UNL     1       3.412  -0.894  -0.064  0.00  0.00    +0.046 A 
ATOM      2  C   UNL     1       4.421  -0.732  -1.019  0.00  0.00    +0.145 A 
ATOM      3  N   UNL     1       5.389  -1.579  -0.761  0.00  0.00    -0.173 NA
ATOM      4  N   UNL     1       5.055  -2.329   0.372  0.00  0.00    -0.221 N 
ATOM      5  C   UNL     1       3.829  -1.903   0.813  0.00  0.00    +0.163 A 
ATOM      6  N   UNL     1       3.262  -2.449   1.895  0.00  0.00    -0.235 NA
ATOM      7  C   UNL     1       3.863  -3.402   2.565  0.00  0.00    +0.123 A 
ATOM      8  C   UNL     1       5.129  -3.870   2.150  0.00  0.00    +0.018 A 
ATOM      9  C   UNL     1       5.710  -3.322   1.040  0.00  0.00    +0.124 A 
ENDROOT
BRANCH   1  13
ATOM     10  C   UNL     1      -0.232   1.283   0.146  0.00  0.00    +0.000 A 
ATOM     11  C   UNL     1       0.968   1.959   0.016  0.00  0.00    +0.001 A 
ATOM     12  C   UNL     1       2.154   1.258  -0.053  0.00  0.00    +0.008 A 
ATOM     13  C   UNL     1       2.142  -0.135   0.010  0.00  0.00    -0.013 A 
ATOM     14  C   UNL     1       0.929  -0.811   0.142  0.00  0.00    +0.008 A 
ATOM     15  C   UNL     1      -0.251  -0.099   0.209  0.00  0.00    +0.001 A 
ENDBRANCH   1  13
BRANCH   8  16
ATOM     16  C   UNL     1       5.816  -4.948   2.903  0.00  0.00    -0.015 A 
ATOM     17  C   UNL     1       6.052  -6.181   2.298  0.00  0.00    +0.012 A 
ATOM     18  C   UNL     1       6.692  -7.181   3.001  0.00  0.00    +0.046 A 
ATOM     19  C   UNL     1       7.100  -6.960   4.309  0.00  0.00    +0.121 A 
ATOM     20  C   UNL     1       6.866  -5.733   4.914  0.00  0.00    +0.046 A 
ATOM     21  C   UNL     1       6.232  -4.727   4.215  0.00  0.00    +0.012 A 
BRANCH  19  22
ATOM     22  O   UNL     1       7.729  -7.947   4.999  0.00  0.00    -0.491 OA
BRANCH  22  23
ATOM     23  C   UNL     1       8.122  -7.652   6.341  0.00  0.00    +0.244 C 
BRANCH  23  24
ATOM     24  C   UNL     1       8.809  -8.875   6.952  0.00  0.00    +0.125 C 
BRANCH  24  25
ATOM     25  N   UNL     1      10.061  -9.143   6.232  0.00  0.00    -0.295 NA
ATOM     26  C   UNL     1      10.512 -10.524   6.456  0.00  0.00    +0.112 C 
ATOM     27  C   UNL     1      11.784 -10.779   5.643  0.00  0.00    +0.175 C 
ATOM     28  O   UNL     1      12.778  -9.818   6.008  0.00  0.00    -0.377 OA
ATOM     29  C   UNL     1      12.372  -8.462   5.802  0.00  0.00    +0.175 C 
ATOM     30  C   UNL     1      11.107  -8.185   6.618  0.00  0.00    +0.112 C 
ENDBRANCH  24  25
ENDBRANCH  23  24
ENDBRANCH  22  23
ENDBRANCH  19  22
ENDBRANCH   8  16
TORSDOF 6
