REMARK  Name = CHEMBL477563
REMARK  7 active torsions:
REMARK  status: ('A' for Active; 'I' for Inactive)
REMARK    1  A    between atoms: C_1  and  C_2
REMARK    2  A    between atoms: C_6  and  N_12
REMARK    3  A    between atoms: N_10  and  C_11
REMARK    4  A    between atoms: N_12  and  C_13
REMARK    5  A    between atoms: N_20  and  C_21
REMARK    6  A    between atoms: C_25  and  S_27
REMARK    7  A    between atoms: S_27  and  N_30
REMARK                            x       y       z     vdW  Elec       q    Type
REMARK                         _______ _______ _______ _____ _____    ______ ____
ROOT
ATOM      1  N   UNL     1      -0.559  -5.740  -1.643  0.00  0.00    -0.288 N 
ATOM      2  C   UNL     1      -1.907  -5.310  -2.022  0.00  0.00    +0.137 C 
ATOM      3  C   UNL     1      -0.369  -6.974  -1.040  0.00  0.00    +0.130 A 
ATOM      4  C   UNL     1      -0.516  -7.117   0.342  0.00  0.00    +0.061 A 
ATOM      5  C   UNL     1      -0.316  -8.365   0.899  0.00  0.00    +0.089 A 
ATOM      6  N   UNL     1       0.006  -9.382   0.113  0.00  0.00    -0.334 N 
ATOM      7  C   UNL     1       0.140  -9.217  -1.195  0.00  0.00    +0.199 A 
ATOM      8  N   UNL     1      -0.049  -8.038  -1.769  0.00  0.00    -0.201 NA
ATOM      9  N   UNL     1       0.479 -10.305  -1.982  0.00  0.00    -0.285 N 
ATOM     10  H   UNL     1       0.540 -11.189  -1.587  0.00  0.00    +0.155 HD
ATOM     11  H   UNL     1       0.147 -10.260   0.501  0.00  0.00    +0.168 HD
ENDROOT
BRANCH   1  17
ATOM     12  C   UNL     1       3.394  -0.068  -4.036  0.00  0.00    +0.084 C 
ATOM     13  C   UNL     1       2.848  -1.335  -3.430  0.00  0.00    +0.084 A 
ATOM     14  N   UNL     1       1.602  -1.708  -3.478  0.00  0.00    -0.343 N 
ATOM     15  C   UNL     1       1.456  -2.895  -2.836  0.00  0.00    +0.066 A 
ATOM     16  C   UNL     1       0.360  -3.728  -2.592  0.00  0.00    +0.051 A 
ATOM     17  C   UNL     1       0.537  -4.905  -1.889  0.00  0.00    +0.037 A 
ATOM     18  C   UNL     1       1.801  -5.264  -1.424  0.00  0.00    +0.025 A 
ATOM     19  C   UNL     1       2.887  -4.451  -1.659  0.00  0.00    +0.030 A 
ATOM     20  C   UNL     1       2.726  -3.266  -2.364  0.00  0.00    +0.067 A 
ATOM     21  N   UNL     1       3.587  -2.260  -2.761  0.00  0.00    -0.332 N 
ATOM     22  C   UNL     1       5.028  -2.199  -2.504  0.00  0.00    +0.150 C 
ATOM     23  H   UNL     1       0.887  -1.212  -3.906  0.00  0.00    +0.167 HD
ENDBRANCH   1  17
BRANCH   9  24
ATOM     24  C   UNL     1       0.733 -10.129  -3.345  0.00  0.00    +0.035 A 
ATOM     25  C   UNL     1       1.314  -8.952  -3.799  0.00  0.00    +0.023 A 
ATOM     26  C   UNL     1       1.564  -8.782  -5.147  0.00  0.00    +0.004 A 
ATOM     27  C   UNL     1       1.234  -9.781  -6.044  0.00  0.00    +0.028 A 
ATOM     28  C   UNL     1       0.655 -10.954  -5.596  0.00  0.00    +0.107 A 
ATOM     29  C   UNL     1       0.409 -11.133  -4.249  0.00  0.00    +0.051 A 
BRANCH  28  30
ATOM     30  S   UNL     1       0.236 -12.224  -6.744  0.00  0.00    +0.056 S 
ATOM     31  O   UNL     1      -0.792 -12.995  -6.139  0.00  0.00    -0.153 OA
ATOM     32  O   UNL     1       0.073 -11.592  -8.006  0.00  0.00    -0.153 OA
BRANCH  30  33
ATOM     33  N   UNL     1       1.556 -13.216  -6.878  0.00  0.00    -0.204 NA
ATOM     34  H   UNL     1       1.436 -14.157  -7.081  0.00  0.00    +0.144 HD
ATOM     35  H   UNL     1       2.448 -12.856  -6.755  0.00  0.00    +0.144 HD
ENDBRANCH  30  33
ENDBRANCH  28  30
ENDBRANCH   9  24
TORSDOF 4
