REMARK  Name = CHEMBL371373
REMARK  10 active torsions:
REMARK  status: ('A' for Active; 'I' for Inactive)
REMARK    1  A    between atoms: C_1  and  C_2
REMARK    2  A    between atoms: C_2  and  C_3
REMARK    3  A    between atoms: C_6  and  C_8
REMARK    4  A    between atoms: C_12  and  C_13
REMARK    5  A    between atoms: C_13  and  C_14
REMARK    6  A    between atoms: C_13  and  C_15
REMARK    7  A    between atoms: N_20  and  C_21
REMARK    8  A    between atoms: C_23  and  C_29
REMARK    9  A    between atoms: N_31  and  O_32
REMARK   10  A    between atoms: O_32  and  C_33
REMARK                            x       y       z     vdW  Elec       q    Type
REMARK                         _______ _______ _______ _____ _____    ______ ____
ROOT
ATOM      1  C   UNL     1      -4.400  -1.703   1.238  0.00  0.00    +0.062 A 
ATOM      2  C   UNL     1      -4.043  -2.056   2.527  0.00  0.00    +0.126 A 
ATOM      3  N   UNL     1      -5.094  -2.648   3.119  0.00  0.00    -0.234 N 
ATOM      4  C   UNL     1      -6.149  -2.688   2.227  0.00  0.00    +0.109 A 
ATOM      5  C   UNL     1      -5.738  -2.099   1.050  0.00  0.00    -0.002 A 
ATOM      6  C   UNL     1      -7.367  -3.274   2.647  0.00  0.00    +0.151 A 
ATOM      7  N   UNL     1      -7.459  -3.763   3.873  0.00  0.00    -0.217 NA
ATOM      8  C   UNL     1      -6.434  -3.717   4.721  0.00  0.00    +0.245 A 
ATOM      9  N   UNL     1      -5.285  -3.191   4.399  0.00  0.00    -0.155 NA
ATOM     10  N   UNL     1      -8.446  -3.335   1.788  0.00  0.00    -0.295 N 
ATOM     11  H   UNL     1      -8.346  -3.060   0.864  0.00  0.00    +0.154 HD
ENDROOT
BRANCH  10  12
ATOM     12  C   UNL     1      -9.686  -3.794   2.252  0.00  0.00    +0.069 A 
ATOM     13  C   UNL     1      -9.965  -3.781   3.608  0.00  0.00    +0.042 A 
ATOM     14  C   UNL     1     -11.202  -4.238   4.067  0.00  0.00    +0.076 A 
ATOM     15  C   UNL     1     -12.152  -4.707   3.153  0.00  0.00    +0.138 A 
ATOM     16  C   UNL     1     -11.863  -4.716   1.801  0.00  0.00    +0.079 A 
ATOM     17  C   UNL     1     -10.639  -4.257   1.348  0.00  0.00    +0.147 A 
ATOM     18  F   UNL     1     -10.365  -4.263   0.025  0.00  0.00    -0.203 F 
ATOM     19  F   UNL     1     -13.350  -5.152   3.592  0.00  0.00    -0.205 F 
BRANCH  14  20
ATOM     20  C   UNL     1     -11.506  -4.228   5.511  0.00  0.00    +0.270 C 
ATOM     21  O   UNL     1     -12.583  -4.627   5.908  0.00  0.00    -0.268 OA
ATOM     22  N   UNL     1     -10.589  -3.776   6.389  0.00  0.00    -0.191 N 
ATOM     23  H   UNL     1      -9.729  -3.458   6.072  0.00  0.00    +0.183 HD
BRANCH  22  24
ATOM     24  O   UNL     1     -10.880  -3.765   7.775  0.00  0.00    -0.283 OA
ATOM     25  C   UNL     1      -9.819  -3.261   8.588  0.00  0.00    +0.226 C 
ENDBRANCH  22  24
ENDBRANCH  14  20
ENDBRANCH  10  12
BRANCH   1  29
ATOM     26  C   UNL     1      -1.868  -0.077  -0.731  0.00  0.00    +0.217 A 
ATOM     27  N   UNL     1      -2.877  -0.120  -1.553  0.00  0.00    -0.112 NA
ATOM     28  N   UNL     1      -3.879  -0.686  -0.977  0.00  0.00    -0.107 NA
ATOM     29  C   UNL     1      -3.539  -1.028   0.244  0.00  0.00    +0.250 A 
ATOM     30  O   UNL     1      -2.256  -0.653   0.421  0.00  0.00    -0.420 OA
BRANCH  26  32
ATOM     31  C   UNL     1      -0.493   1.984  -0.628  0.00  0.00    +0.013 C 
ATOM     32  C   UNL     1      -0.508   0.505  -1.020  0.00  0.00    +0.094 C 
ENDBRANCH  26  32
ENDBRANCH   1  29
BRANCH   5  33
ATOM     33  C   UNL     1      -6.562  -1.917  -0.199  0.00  0.00    +0.016 C 
ATOM     34  C   UNL     1      -6.657  -0.428  -0.535  0.00  0.00    +0.012 C 
ATOM     35  C   UNL     1      -5.899  -2.661  -1.360  0.00  0.00    +0.012 C 
ENDBRANCH   5  33
TORSDOF 6
