REMARK  Name = CHEMBL427025
REMARK  3 active torsions:
REMARK  status: ('A' for Active; 'I' for Inactive)
REMARK    1  A    between atoms: C_6  and  N_7
REMARK    2  A    between atoms: C_10  and  N_13
REMARK    3  A    between atoms: C_18  and  C_20
REMARK                            x       y       z     vdW  Elec       q    Type
REMARK                         _______ _______ _______ _____ _____    ______ ____
ROOT
ATOM      1  C   UNL     1      -0.018   1.399   0.011  0.00  0.00    +0.087 A 
ATOM      2  C   UNL     1       1.200   2.071  -0.001  0.00  0.00    +0.129 A 
ATOM      3  N   UNL     1       2.328   1.363  -0.023  0.00  0.00    -0.220 NA
ATOM      4  C   UNL     1       2.299   0.046  -0.035  0.00  0.00    +0.225 A 
ATOM      5  N   UNL     1       1.167  -0.626  -0.025  0.00  0.00    -0.221 NA
ATOM      6  C   UNL     1      -0.004   0.008  -0.002  0.00  0.00    +0.126 A 
ATOM      7  N   UNL     1       1.240   3.459   0.011  0.00  0.00    -0.279 N 
ATOM      8  C   UNL     1       2.452   4.114   0.108  0.00  0.00    +0.165 A 
ATOM      9  N   UNL     1       3.665   3.593   0.103  0.00  0.00    -0.232 NA
ATOM     10  C   UNL     1       4.734   4.346   0.203  0.00  0.00    +0.139 A 
ATOM     11  C   UNL     1       4.517   5.712   0.313  0.00  0.00    +0.110 A 
ATOM     12  S   UNL     1       2.733   5.768   0.251  0.00  0.00    -0.042 S 
ATOM     13  H   UNL     1       0.416   3.968  -0.049  0.00  0.00    +0.155 HD
ENDROOT
BRANCH   6  14
ATOM     14  N   UNL     1      -1.192  -0.708   0.009  0.00  0.00    -0.315 N 
ATOM     15  C   UNL     1      -1.188  -2.162   0.223  0.00  0.00    +0.105 C 
ATOM     16  C   UNL     1      -2.135  -2.493   1.379  0.00  0.00    +0.003 C 
ATOM     17  C   UNL     1      -3.518  -1.904   1.086  0.00  0.00    -0.072 C 
ATOM     18  C   UNL     1      -3.411  -0.382   0.969  0.00  0.00    +0.003 C 
ATOM     19  C   UNL     1      -2.478  -0.026  -0.187  0.00  0.00    +0.105 C 
BRANCH  17  20
ATOM     20  N   UNL     1      -4.438  -2.248   2.178  0.00  0.00    +0.380 N 
ATOM     21  H   UNL     1      -4.088  -1.868   3.045  0.00  0.00    -0.090 HD
ATOM     22  H   UNL     1      -5.349  -1.860   1.984  0.00  0.00    -0.090 HD
ATOM     23  H   UNL     1      -4.509  -3.252   2.255  0.00  0.00    -0.090 HD
ENDBRANCH  17  20
ENDBRANCH   6  14
BRANCH  11  24
ATOM     24  C   UNL     1       5.461   6.781   0.436  0.00  0.00    +0.108 C 
ATOM     25  N   UNL     1       6.211   7.629   0.534  0.00  0.00    -0.190 NA
ENDBRANCH  11  24
TORSDOF 3
