REMARK  Name = CHEMBL410711
REMARK  4 active torsions:
REMARK  status: ('A' for Active; 'I' for Inactive)
REMARK    1  A    between atoms: C_3  and  C_27
REMARK    2  A    between atoms: C_5  and  N_7
REMARK    3  A    between atoms: N_10  and  C_11
REMARK    4  A    between atoms: C_14  and  C_17
REMARK                            x       y       z     vdW  Elec       q    Type
REMARK                         _______ _______ _______ _____ _____    ______ ____
ROOT
ATOM      1  C   UNL     1      -1.028  -4.929   0.154  0.00  0.00    +0.035 A 
ATOM      2  C   UNL     1      -2.246  -4.260   0.162  0.00  0.00    +0.024 A 
ATOM      3  C   UNL     1      -3.426  -4.973   0.165  0.00  0.00    +0.010 A 
ATOM      4  C   UNL     1      -3.397  -6.366   0.159  0.00  0.00    -0.017 A 
ATOM      5  C   UNL     1      -2.174  -7.036   0.150  0.00  0.00    +0.010 A 
ATOM      6  C   UNL     1      -0.996  -6.319   0.143  0.00  0.00    +0.024 A 
ENDROOT
BRANCH   4   7
ATOM      7  C   UNL     1      -4.665  -7.136   0.163  0.00  0.00    -0.012 A 
ATOM      8  C   UNL     1      -5.664  -6.836   1.091  0.00  0.00    +0.009 A 
ATOM      9  C   UNL     1      -6.844  -7.554   1.093  0.00  0.00    +0.001 A 
ATOM     10  C   UNL     1      -7.046  -8.571   0.181  0.00  0.00    +0.013 A 
ATOM     11  C   UNL     1      -6.055  -8.882  -0.753  0.00  0.00    +0.042 A 
ATOM     12  C   UNL     1      -4.865  -8.153  -0.758  0.00  0.00    -0.011 A 
ATOM     13  C   UNL     1      -4.021  -8.719  -1.873  0.00  0.00    +0.141 C 
ATOM     14  N   UNL     1      -4.814  -9.793  -2.482  0.00  0.00    -0.307 N 
ATOM     15  C   UNL     1      -5.984  -9.892  -1.827  0.00  0.00    +0.245 C 
ATOM     16  O   UNL     1      -6.863 -10.688  -2.091  0.00  0.00    -0.270 OA
ATOM     17  H   UNL     1      -4.536 -10.347  -3.228  0.00  0.00    +0.149 HD
ENDBRANCH   4   7
BRANCH   1  21
ATOM     18  N   UNL     1       1.359  -2.275   0.708  0.00  0.00    -0.269 N 
ATOM     19  C   UNL     1       0.241  -3.023   0.797  0.00  0.00    +0.308 C 
ATOM     20  O   UNL     1      -0.700  -2.634   1.461  0.00  0.00    -0.252 OA
ATOM     21  N   UNL     1       0.168  -4.204   0.151  0.00  0.00    -0.269 N 
ATOM     22  H   UNL     1       2.080  -2.548   0.119  0.00  0.00    +0.156 HD
ATOM     23  H   UNL     1       0.944  -4.550  -0.317  0.00  0.00    +0.156 HD
BRANCH  18  28
ATOM     24  C   UNL     1       2.301   1.136   1.709  0.00  0.00    +0.002 A 
ATOM     25  C   UNL     1       1.716   1.212   2.960  0.00  0.00    +0.012 A 
ATOM     26  C   UNL     1       1.012   0.134   3.464  0.00  0.00    +0.057 A 
ATOM     27  C   UNL     1       0.892  -1.023   2.720  0.00  0.00    +0.035 A 
ATOM     28  C   UNL     1       1.478  -1.103   1.464  0.00  0.00    +0.035 A 
ATOM     29  C   UNL     1       2.184  -0.019   0.960  0.00  0.00    +0.023 A 
BRANCH  26  30
ATOM     30  C   UNL     1       0.376   0.222   4.828  0.00  0.00    +0.417 C 
ATOM     31  F   UNL     1       0.633   1.480   5.382  0.00  0.00    -0.166 F 
ATOM     32  F   UNL     1      -1.006   0.037   4.711  0.00  0.00    -0.166 F 
ATOM     33  F   UNL     1       0.911  -0.771   5.656  0.00  0.00    -0.166 F 
ENDBRANCH  26  30
ENDBRANCH  18  28
ENDBRANCH   1  21
TORSDOF 4
