REMARK  Name = CHEMBL270755
REMARK  9 active torsions:
REMARK  status: ('A' for Active; 'I' for Inactive)
REMARK    1  A    between atoms: C_1  and  O_2
REMARK    2  A    between atoms: O_2  and  C_3
REMARK    3  A    between atoms: C_6  and  O_15
REMARK    4  A    between atoms: C_12  and  O_13
REMARK    5  A    between atoms: O_13  and  C_14
REMARK    6  A    between atoms: O_15  and  C_16
REMARK    7  A    between atoms: C_25  and  C_26
REMARK    8  A    between atoms: N_28  and  C_29
REMARK    9  A    between atoms: C_29  and  C_30
REMARK                            x       y       z     vdW  Elec       q    Type
REMARK                         _______ _______ _______ _____ _____    ______ ____
ROOT
ATOM      1  C   UNL     1       2.999   2.394  -5.082  0.00  0.00    +0.129 A 
ATOM      2  C   UNL     1       3.581   1.764  -6.186  0.00  0.00    +0.047 A 
ATOM      3  C   UNL     1       4.154   2.492  -7.184  0.00  0.00    +0.013 A 
ATOM      4  C   UNL     1       4.162   3.892  -7.108  0.00  0.00    -0.006 A 
ATOM      5  C   UNL     1       3.573   4.534  -5.991  0.00  0.00    -0.014 A 
ATOM      6  C   UNL     1       2.986   3.756  -4.980  0.00  0.00    +0.054 A 
ATOM      7  C   UNL     1       3.581   5.938  -5.915  0.00  0.00    +0.008 A 
ATOM      8  C   UNL     1       4.152   6.673  -6.911  0.00  0.00    +0.001 A 
ATOM      9  C   UNL     1       4.734   6.061  -8.014  0.00  0.00    +0.013 A 
ATOM     10  C   UNL     1       4.750   4.679  -8.129  0.00  0.00    +0.044 A 
ENDROOT
BRANCH  10  11
ATOM     11  C   UNL     1       5.370   4.036  -9.303  0.00  0.00    +0.245 C 
ATOM     12  O   UNL     1       5.282   2.832  -9.454  0.00  0.00    -0.270 OA
ATOM     13  N   UNL     1       6.034   4.782 -10.207  0.00  0.00    -0.311 N 
ATOM     14  H   UNL     1       6.104   5.742 -10.087  0.00  0.00    +0.149 HD
BRANCH  13  15
ATOM     15  C   UNL     1       6.651   4.143 -11.373  0.00  0.00    +0.108 C 
BRANCH  15  16
ATOM     16  C   UNL     1       7.336   5.206 -12.234  0.00  0.00    +0.006 C 
ATOM     17  C   UNL     1       6.796   5.424 -13.649  0.00  0.00    +0.005 C 
ATOM     18  C   UNL     1       8.141   4.724 -13.442  0.00  0.00    +0.005 C 
ENDBRANCH  15  16
ENDBRANCH  13  15
ENDBRANCH  10  11
BRANCH   1  19
ATOM     19  O   UNL     1       2.434   1.642  -4.101  0.00  0.00    -0.455 OA
BRANCH  19  23
ATOM     20  C   UNL     1       0.895  -0.490  -0.821  0.00  0.00    +0.162 A 
ATOM     21  C   UNL     1       1.359   0.211  -1.896  0.00  0.00    +0.063 A 
ATOM     22  C   UNL     1       2.741   0.294  -2.126  0.00  0.00    +0.044 A 
ATOM     23  C   UNL     1       3.258   1.011  -3.228  0.00  0.00    +0.139 A 
ATOM     24  C   UNL     1       4.632   1.049  -3.390  0.00  0.00    +0.064 A 
ATOM     25  C   UNL     1       5.451   0.393  -2.481  0.00  0.00    +0.086 A 
ATOM     26  N   UNL     1       4.960  -0.271  -1.460  0.00  0.00    -0.360 N 
ATOM     27  C   UNL     1       3.642  -0.349  -1.243  0.00  0.00    +0.054 A 
ATOM     28  C   UNL     1       3.133  -1.062  -0.145  0.00  0.00    +0.075 A 
ATOM     29  C   UNL     1       1.785  -1.123   0.059  0.00  0.00    +0.163 A 
ATOM     30  H   UNL     1       5.568  -0.715  -0.849  0.00  0.00    +0.165 HD
BRANCH  20  32
ATOM     31  C   UNL     1      -1.298   0.096  -1.529  0.00  0.00    +0.277 C 
ATOM     32  O   UNL     1      -0.444  -0.570  -0.597  0.00  0.00    -0.491 OA
ENDBRANCH  20  32
BRANCH  29  33
ATOM     33  O   UNL     1       1.298  -1.810   1.126  0.00  0.00    -0.491 OA
ATOM     34  C   UNL     1       2.253  -2.433   1.986  0.00  0.00    +0.277 C 
ENDBRANCH  29  33
ENDBRANCH  19  23
ENDBRANCH   1  19
TORSDOF 7
