REMARK  Name = CHEMBL244486
REMARK  7 active torsions:
REMARK  status: ('A' for Active; 'I' for Inactive)
REMARK    1  A    between atoms: C_3  and  C_7
REMARK    2  A    between atoms: C_7  and  N_9
REMARK    3  A    between atoms: C_15  and  O_20
REMARK    4  A    between atoms: O_20  and  C_21
REMARK    5  A    between atoms: C_24  and  N_27
REMARK    6  A    between atoms: N_30  and  C_31
REMARK    7  A    between atoms: C_33  and  C_38
REMARK                            x       y       z     vdW  Elec       q    Type
REMARK                         _______ _______ _______ _____ _____    ______ ____
ROOT
ATOM      1  C   UNL     1      12.914   4.786  -0.413  0.00  0.00    +0.129 A 
ATOM      2  C   UNL     1      12.319   6.036  -0.506  0.00  0.00    +0.048 A 
ATOM      3  C   UNL     1      13.103   7.166  -0.630  0.00  0.00    +0.027 A 
ATOM      4  C   UNL     1      14.486   7.051  -0.661  0.00  0.00    +0.035 A 
ATOM      5  C   UNL     1      15.081   5.800  -0.567  0.00  0.00    +0.027 A 
ATOM      6  C   UNL     1      14.296   4.671  -0.438  0.00  0.00    +0.048 A 
ENDROOT
BRANCH   4   7
ATOM      7  N   UNL     1      15.282   8.198  -0.787  0.00  0.00    -0.269 N 
ATOM      8  C   UNL     1      14.895   9.354  -0.211  0.00  0.00    +0.308 C 
ATOM      9  O   UNL     1      13.908   9.378   0.499  0.00  0.00    -0.252 OA
ATOM     10  N   UNL     1      15.601  10.482  -0.423  0.00  0.00    -0.267 N 
ATOM     11  H   UNL     1      16.111   8.160  -1.288  0.00  0.00    +0.156 HD
ATOM     12  H   UNL     1      16.354  10.475  -1.035  0.00  0.00    +0.156 HD
BRANCH  10  13
ATOM     13  C   UNL     1      15.248  11.664   0.240  0.00  0.00    +0.071 A 
ATOM     14  C   UNL     1      13.943  11.856   0.672  0.00  0.00    +0.038 A 
ATOM     15  C   UNL     1      13.597  13.023   1.326  0.00  0.00    +0.057 A 
ATOM     16  C   UNL     1      14.549  14.000   1.551  0.00  0.00    +0.015 A 
ATOM     17  C   UNL     1      15.851  13.813   1.123  0.00  0.00    +0.041 A 
ATOM     18  C   UNL     1      16.205  12.646   0.472  0.00  0.00    +0.145 A 
ATOM     19  F   UNL     1      17.477  12.461   0.058  0.00  0.00    -0.204 F 
BRANCH  15  20
ATOM     20  C   UNL     1      12.180  13.231   1.795  0.00  0.00    +0.417 C 
ATOM     21  F   UNL     1      12.042  12.736   3.096  0.00  0.00    -0.166 F 
ATOM     22  F   UNL     1      11.881  14.598   1.782  0.00  0.00    -0.166 F 
ATOM     23  F   UNL     1      11.303  12.553   0.943  0.00  0.00    -0.166 F 
ENDBRANCH  15  20
ENDBRANCH  10  13
ENDBRANCH   4   7
BRANCH   1  24
ATOM     24  O   UNL     1      12.142   3.674  -0.291  0.00  0.00    -0.456 OA
BRANCH  24  31
ATOM     25  N   UNL     1      15.954  -1.998   1.834  0.00  0.00    -0.143 NA
ATOM     26  C   UNL     1      15.221  -1.076   1.222  0.00  0.00    +0.199 A 
ATOM     27  N   UNL     1      14.838   0.113   1.761  0.00  0.00    -0.326 N 
ATOM     28  H   UNL     1      15.053   0.428   2.653  0.00  0.00    +0.169 HD
ATOM     29  C   UNL     1      14.085   0.800   0.814  0.00  0.00    +0.069 A 
ATOM     30  C   UNL     1      13.454   2.035   0.823  0.00  0.00    +0.074 A 
ATOM     31  C   UNL     1      12.761   2.463  -0.298  0.00  0.00    +0.131 A 
ATOM     32  C   UNL     1      12.697   1.659  -1.428  0.00  0.00    +0.048 A 
ATOM     33  C   UNL     1      13.322   0.428  -1.442  0.00  0.00    +0.031 A 
ATOM     34  C   UNL     1      14.018  -0.007  -0.324  0.00  0.00    +0.066 A 
ATOM     35  N   UNL     1      14.738  -1.167  -0.046  0.00  0.00    -0.326 N 
ATOM     36  H   UNL     1      14.870  -1.913  -0.652  0.00  0.00    +0.169 HD
BRANCH  25  37
ATOM     37  C   UNL     1      16.362  -3.082   1.165  0.00  0.00    +0.272 C 
ATOM     38  O   UNL     1      15.983  -3.269   0.022  0.00  0.00    -0.268 OA
BRANCH  37  41
ATOM     39  C   UNL     1      18.557  -6.067   1.773  0.00  0.00    +0.020 A 
ATOM     40  C   UNL     1      17.706  -5.191   1.123  0.00  0.00    +0.016 A 
ATOM     41  C   UNL     1      17.272  -4.053   1.813  0.00  0.00    +0.057 A 
ATOM     42  C   UNL     1      17.713  -3.849   3.120  0.00  0.00    +0.123 A 
ATOM     43  N   UNL     1      18.523  -4.713   3.697  0.00  0.00    -0.263 NA
ATOM     44  C   UNL     1      18.948  -5.794   3.071  0.00  0.00    +0.111 A 
ENDBRANCH  37  41
ENDBRANCH  25  37
ENDBRANCH  24  31
ENDBRANCH   1  24
TORSDOF 7
