REMARK  Name = CHEMBL220406
REMARK  6 active torsions:
REMARK  status: ('A' for Active; 'I' for Inactive)
REMARK    1  A    between atoms: C_1  and  C_2
REMARK    2  A    between atoms: C_2  and  C_3
REMARK    3  A    between atoms: C_3  and  N_4
REMARK    4  A    between atoms: C_8  and  N_29
REMARK    5  A    between atoms: N_23  and  C_28
REMARK    6  A    between atoms: C_30  and  C_32
REMARK                            x       y       z     vdW  Elec       q    Type
REMARK                         _______ _______ _______ _____ _____    ______ ____
ROOT
ATOM      1  N   UNL     1       0.720  -1.974  -1.251  0.00  0.00    -0.340 N 
ATOM      2  C   UNL     1       1.757  -2.745  -0.786  0.00  0.00    +0.050 A 
ATOM      3  C   UNL     1       2.975  -2.385  -0.211  0.00  0.00    +0.028 A 
ATOM      4  C   UNL     1       3.828  -3.411   0.161  0.00  0.00    +0.025 A 
ATOM      5  C   UNL     1       3.499  -4.748  -0.024  0.00  0.00    +0.034 A 
ATOM      6  C   UNL     1       2.288  -5.129  -0.593  0.00  0.00    +0.034 A 
ATOM      7  C   UNL     1       1.420  -4.104  -0.968  0.00  0.00    +0.010 A 
ATOM      8  C   UNL     1       0.086  -4.128  -1.572  0.00  0.00    +0.013 A 
ATOM      9  C   UNL     1      -0.297  -2.780  -1.731  0.00  0.00    +0.054 A 
ATOM     10  C   UNL     1      -1.538  -2.470  -2.284  0.00  0.00    -0.014 A 
ATOM     11  C   UNL     1      -2.373  -3.499  -2.704  0.00  0.00    +0.003 A 
ATOM     12  C   UNL     1      -2.015  -4.845  -2.515  0.00  0.00    +0.050 A 
ATOM     13  C   UNL     1      -0.773  -5.146  -1.956  0.00  0.00    -0.008 A 
ATOM     14  C   UNL     1      -0.687  -6.650  -1.894  0.00  0.00    +0.141 C 
ATOM     15  N   UNL     1      -1.941  -7.155  -2.464  0.00  0.00    -0.307 N 
ATOM     16  C   UNL     1      -2.708  -6.109  -2.811  0.00  0.00    +0.245 C 
ATOM     17  O   UNL     1      -3.814  -6.194  -3.311  0.00  0.00    -0.270 OA
ATOM     18  C   UNL     1      -3.625  -3.121  -3.397  0.00  0.00    +0.024 A 
ATOM     19  C   UNL     1      -4.721  -3.834  -3.729  0.00  0.00    +0.116 A 
ATOM     20  N   UNL     1      -5.584  -2.989  -4.338  0.00  0.00    -0.274 N 
ATOM     21  N   UNL     1      -4.994  -1.716  -4.386  0.00  0.00    -0.176 NA
ATOM     22  C   UNL     1      -3.825  -1.784  -3.839  0.00  0.00    +0.071 A 
ATOM     23  C   UNL     1      -2.760  -0.733  -3.654  0.00  0.00    +0.062 C 
ATOM     24  C   UNL     1      -1.964  -1.031  -2.386  0.00  0.00    +0.044 C 
ATOM     25  C   UNL     1      -6.906  -3.342  -4.860  0.00  0.00    +0.172 C 
ATOM     26  H   UNL     1      -2.183  -8.090  -2.561  0.00  0.00    +0.149 HD
ENDROOT
BRANCH   5  27
ATOM     27  N   UNL     1       4.409  -5.736   0.371  0.00  0.00    -0.281 N 
ATOM     28  C   UNL     1       4.513  -6.878  -0.337  0.00  0.00    +0.255 C 
ATOM     29  O   UNL     1       3.888  -7.011  -1.373  0.00  0.00    -0.269 OA
ATOM     30  H   UNL     1       4.964  -5.599   1.154  0.00  0.00    +0.155 HD
BRANCH  28  31
ATOM     31  C   UNL     1       5.379  -7.960   0.140  0.00  0.00    +0.074 A 
ATOM     32  C   UNL     1       5.629  -9.197  -0.434  0.00  0.00    +0.021 A 
ATOM     33  C   UNL     1       6.497 -10.010   0.254  0.00  0.00    +0.008 A 
ATOM     34  C   UNL     1       7.038  -9.564   1.415  0.00  0.00    +0.046 A 
ATOM     35  S   UNL     1       6.392  -8.025   1.606  0.00  0.00    -0.092 S 
ENDBRANCH  28  31
ENDBRANCH   5  27
BRANCH   1  36
ATOM     36  C   UNL     1       0.692  -0.509  -1.235  0.00  0.00    +0.122 C 
BRANCH  36  38
ATOM     37  C   UNL     1       1.112   1.554  -2.580  0.00  0.00    +0.005 C 
ATOM     38  C   UNL     1       1.141   0.024  -2.597  0.00  0.00    +0.018 C 
ENDBRANCH  36  38
ENDBRANCH   1  36
TORSDOF 4
