REMARK  Name = CHEMBL176019
REMARK  6 active torsions:
REMARK  status: ('A' for Active; 'I' for Inactive)
REMARK    1  A    between atoms: C_1  and  C_2
REMARK    2  A    between atoms: C_2  and  C_3
REMARK    3  A    between atoms: C_2  and  N_4
REMARK    4  A    between atoms: N_4  and  C_5
REMARK    5  A    between atoms: C_5  and  C_6
REMARK    6  A    between atoms: N_19  and  C_20
REMARK                            x       y       z     vdW  Elec       q    Type
REMARK                         _______ _______ _______ _____ _____    ______ ____
ROOT
ATOM      1  N   UNL     1      -1.300  -0.802   0.198  0.00  0.00    -0.294 N 
ATOM      2  C   UNL     1      -2.182  -0.304   1.115  0.00  0.00    +0.203 A 
ATOM      3  N   UNL     1      -1.747   0.426   2.127  0.00  0.00    -0.182 NA
ATOM      4  C   UNL     1      -2.606   0.913   3.026  0.00  0.00    +0.227 A 
ATOM      5  N   UNL     1      -3.907   0.673   2.917  0.00  0.00    -0.159 NA
ATOM      6  C   UNL     1      -4.375  -0.060   1.905  0.00  0.00    +0.351 A 
ATOM      7  N   UNL     1      -3.518  -0.554   0.987  0.00  0.00    -0.278 N 
ATOM      8  O   UNL     1      -5.570  -0.279   1.808  0.00  0.00    -0.245 OA
ATOM      9  N   UNL     1      -2.138   1.671   4.074  0.00  0.00    -0.283 N 
ATOM     10  H   UNL     1      -1.201   1.919   4.112  0.00  0.00    +0.155 HD
ATOM     11  H   UNL     1      -3.848  -1.086   0.246  0.00  0.00    +0.173 HD
ENDROOT
BRANCH   9  12
ATOM     12  C   UNL     1      -3.014   2.084   5.084  0.00  0.00    +0.035 A 
ATOM     13  C   UNL     1      -2.883   3.347   5.659  0.00  0.00    +0.025 A 
ATOM     14  C   UNL     1      -3.720   3.773   6.640  0.00  0.00    +0.031 A 
ATOM     15  C   UNL     1      -4.762   2.944   7.119  0.00  0.00    +0.078 A 
ATOM     16  C   UNL     1      -4.872   1.668   6.519  0.00  0.00    +0.041 A 
ATOM     17  C   UNL     1      -4.028   1.243   5.522  0.00  0.00    +0.040 A 
ATOM     18  S   UNL     1      -6.261   0.968   7.377  0.00  0.00    -0.075 S 
ATOM     19  C   UNL     1      -6.593   2.366   8.440  0.00  0.00    +0.157 A 
ATOM     20  N   UNL     1      -5.670   3.216   8.080  0.00  0.00    -0.247 NA
ENDBRANCH   9  12
BRANCH   1  22
ATOM     21  C   UNL     1       0.373   0.979   0.300  0.00  0.00    +0.028 C 
ATOM     22  C   UNL     1       0.133  -0.531   0.338  0.00  0.00    +0.070 C 
ATOM     23  C   UNL     1       0.630  -1.094   1.671  0.00  0.00    +0.028 C 
ENDBRANCH   1  22
BRANCH   1  24
ATOM     24  C   UNL     1      -1.787  -1.606  -0.926  0.00  0.00    +0.143 C 
BRANCH  24  25
ATOM     25  C   UNL     1      -1.808  -3.060  -0.532  0.00  0.00    -0.030 A 
ATOM     26  C   UNL     1      -0.694  -3.850  -0.744  0.00  0.00    +0.005 A 
ATOM     27  C   UNL     1      -0.713  -5.184  -0.382  0.00  0.00    +0.000 A 
ATOM     28  C   UNL     1      -1.847  -5.728   0.192  0.00  0.00    +0.000 A 
ATOM     29  C   UNL     1      -2.961  -4.938   0.405  0.00  0.00    +0.000 A 
ATOM     30  C   UNL     1      -2.940  -3.603   0.047  0.00  0.00    +0.005 A 
ENDBRANCH  24  25
ENDBRANCH   1  24
TORSDOF 4
