REMARK  Name = CHEMBL271181
REMARK  6 active torsions:
REMARK  status: ('A' for Active; 'I' for Inactive)
REMARK    1  A    between atoms: C_1  and  N_2
REMARK    2  A    between atoms: C_3  and  C_5
REMARK    3  A    between atoms: C_7  and  O_11
REMARK    4  A    between atoms: O_11  and  C_12
REMARK    5  A    between atoms: C_21  and  C_22
REMARK    6  A    between atoms: N_24  and  C_25
REMARK                            x       y       z     vdW  Elec       q    Type
REMARK                         _______ _______ _______ _____ _____    ______ ____
ROOT
ATOM      1  C   UNL     1       1.800  -6.303   3.060  0.00  0.00    +0.129 A 
ATOM      2  C   UNL     1       1.225  -7.009   1.999  0.00  0.00    +0.047 A 
ATOM      3  C   UNL     1       1.226  -8.370   1.984  0.00  0.00    +0.013 A 
ATOM      4  C   UNL     1       1.810  -9.078   3.043  0.00  0.00    -0.006 A 
ATOM      5  C   UNL     1       2.394  -8.367   4.120  0.00  0.00    -0.014 A 
ATOM      6  C   UNL     1       2.382  -6.963   4.106  0.00  0.00    +0.054 A 
ATOM      7  C   UNL     1       2.980  -9.078   5.183  0.00  0.00    +0.008 A 
ATOM      8  C   UNL     1       2.985 -10.441   5.174  0.00  0.00    +0.001 A 
ATOM      9  C   UNL     1       2.418 -11.155   4.126  0.00  0.00    +0.014 A 
ATOM     10  C   UNL     1       1.828 -10.495   3.058  0.00  0.00    +0.045 A 
ENDROOT
BRANCH  10  11
ATOM     11  C   UNL     1       1.227 -11.260   1.950  0.00  0.00    +0.249 C 
ATOM     12  O   UNL     1       0.807 -10.679   0.968  0.00  0.00    -0.270 OA
ATOM     13  N   UNL     1       1.143 -12.603   2.025  0.00  0.00    -0.281 N 
ATOM     14  H   UNL     1       1.533 -13.072   2.780  0.00  0.00    +0.155 HD
BRANCH  13  15
ATOM     15  C   UNL     1       0.493 -13.321   1.016  0.00  0.00    +0.034 A 
ATOM     16  C   UNL     1      -0.240 -14.457   1.333  0.00  0.00    +0.025 A 
ATOM     17  C   UNL     1      -0.882 -15.164   0.335  0.00  0.00    +0.022 A 
ATOM     18  C   UNL     1      -0.794 -14.741  -0.980  0.00  0.00    +0.041 A 
ATOM     19  C   UNL     1      -0.064 -13.609  -1.298  0.00  0.00    +0.022 A 
ATOM     20  C   UNL     1       0.574 -12.895  -0.303  0.00  0.00    +0.025 A 
ATOM     21 CL   UNL     1      -1.601 -15.632  -2.233  0.00  0.00    -0.084 Cl
ENDBRANCH  13  15
ENDBRANCH  10  11
BRANCH   1  22
ATOM     22  O   UNL     1       1.786  -4.944   3.049  0.00  0.00    -0.456 OA
BRANCH  22  25
ATOM     23  C   UNL     1      -1.726  -4.364   3.847  0.00  0.00    +0.129 A 
ATOM     24  C   UNL     1      -0.551  -5.046   3.547  0.00  0.00    +0.079 A 
ATOM     25  C   UNL     1       0.618  -4.317   3.342  0.00  0.00    +0.132 A 
ATOM     26  C   UNL     1       0.560  -2.930   3.446  0.00  0.00    +0.066 A 
ATOM     27  C   UNL     1      -0.646  -2.324   3.747  0.00  0.00    +0.115 A 
ATOM     28  N   UNL     1      -1.736  -3.039   3.930  0.00  0.00    -0.250 NA
BRANCH  23  31
ATOM     29  C   UNL     1      -5.361  -5.219   4.572  0.00  0.00    +0.128 C 
ATOM     30  N   UNL     1      -4.122  -4.469   4.353  0.00  0.00    -0.313 N 
ATOM     31  C   UNL     1      -2.979  -5.123   4.068  0.00  0.00    +0.262 C 
ATOM     32  O   UNL     1      -2.976  -6.336   3.993  0.00  0.00    -0.269 OA
ATOM     33  H   UNL     1      -4.125  -3.500   4.413  0.00  0.00    +0.149 HD
ENDBRANCH  23  31
ENDBRANCH  22  25
ENDBRANCH   1  22
TORSDOF 5
