REMARK  Name = CHEMBL249192
REMARK  10 active torsions:
REMARK  status: ('A' for Active; 'I' for Inactive)
REMARK    1  A    between atoms: C_1  and  C_2
REMARK    2  A    between atoms: C_2  and  O_3
REMARK    3  A    between atoms: O_3  and  C_4
REMARK    4  A    between atoms: C_4  and  C_6
REMARK    5  A    between atoms: C_8  and  C_11
REMARK    6  A    between atoms: C_15  and  N_17
REMARK    7  A    between atoms: C_18  and  C_20
REMARK    8  A    between atoms: C_25  and  N_26
REMARK    9  A    between atoms: N_26  and  C_27
REMARK   10  A    between atoms: C_27  and  C_28
REMARK                            x       y       z     vdW  Elec       q    Type
REMARK                         _______ _______ _______ _____ _____    ______ ____
ROOT
ATOM      1  N   UNL     1      -8.928  -6.116   0.085  0.00  0.00    -0.281 N 
ATOM      2  C   UNL     1      -9.664  -7.238  -0.037  0.00  0.00    +0.252 C 
ATOM      3  O   UNL     1      -9.119  -8.325  -0.051  0.00  0.00    -0.270 OA
ATOM      4  H   UNL     1      -9.366  -5.255   0.172  0.00  0.00    +0.155 HD
ENDROOT
BRANCH   1   9
ATOM      5  C   UNL     1      -5.497  -7.234  -0.665  0.00  0.00    +0.019 A 
ATOM      6  C   UNL     1      -4.758  -6.333   0.104  0.00  0.00    +0.011 A 
ATOM      7  C   UNL     1      -5.406  -5.373   0.854  0.00  0.00    +0.002 A 
ATOM      8  C   UNL     1      -6.787  -5.300   0.848  0.00  0.00    +0.023 A 
ATOM      9  C   UNL     1      -7.531  -6.193   0.087  0.00  0.00    +0.034 A 
ATOM     10  C   UNL     1      -6.889  -7.157  -0.675  0.00  0.00    +0.035 A 
BRANCH   5  13
ATOM     11  C   UNL     1      -3.253  -9.569  -2.453  0.00  0.00    +0.097 A 
ATOM     12  C   UNL     1      -3.462  -8.439  -1.541  0.00  0.00    +0.065 A 
ATOM     13  C   UNL     1      -4.805  -8.264  -1.469  0.00  0.00    +0.136 A 
ATOM     14  O   UNL     1      -5.405  -9.181  -2.250  0.00  0.00    -0.462 OA
ATOM     15  C   UNL     1      -4.501  -9.963  -2.848  0.00  0.00    +0.210 A 
BRANCH  11  16
ATOM     16  C   UNL     1      -1.965 -10.155  -2.862  0.00  0.00    +0.342 C 
ATOM     17  O   UNL     1      -0.926  -9.699  -2.428  0.00  0.00    -0.245 OA
BRANCH  16  18
ATOM     18  O   UNL     1      -1.940 -11.195  -3.718  0.00  0.00    -0.461 OA
BRANCH  18  20
ATOM     19  C   UNL     1      -0.827 -12.882  -5.044  0.00  0.00    +0.048 C 
ATOM     20  C   UNL     1      -0.656 -11.713  -4.072  0.00  0.00    +0.229 C 
ENDBRANCH  18  20
ENDBRANCH  16  18
ENDBRANCH  11  16
ENDBRANCH   5  13
ENDBRANCH   1   9
BRANCH   2  21
ATOM     21  C   UNL     1     -11.131  -7.147  -0.153  0.00  0.00    +0.077 A 
ATOM     22  C   UNL     1     -11.762  -5.902  -0.259  0.00  0.00    +0.018 A 
ATOM     23  C   UNL     1     -13.141  -5.871  -0.366  0.00  0.00    +0.021 A 
ATOM     24  C   UNL     1     -13.851  -7.059  -0.365  0.00  0.00    +0.113 A 
ATOM     25  N   UNL     1     -13.239  -8.222  -0.264  0.00  0.00    -0.240 NA
ATOM     26  C   UNL     1     -11.921  -8.309  -0.166  0.00  0.00    +0.131 A 
BRANCH  26  27
ATOM     27  N   UNL     1     -11.320  -9.551  -0.069  0.00  0.00    -0.324 N 
ATOM     28  H   UNL     1     -10.352  -9.623  -0.071  0.00  0.00    +0.148 HD
BRANCH  27  29
ATOM     29  C   UNL     1     -12.143 -10.758   0.038  0.00  0.00    +0.138 C 
BRANCH  29  30
ATOM     30  C   UNL     1     -11.251 -11.969   0.130  0.00  0.00    -0.028 A 
ATOM     31  C   UNL     1     -10.837 -12.633  -1.014  0.00  0.00    +0.025 A 
ATOM     32  C   UNL     1     -10.018 -13.740  -0.890  0.00  0.00    +0.111 A 
ATOM     33  N   UNL     1      -9.633 -14.165   0.297  0.00  0.00    -0.263 NA
ATOM     34  C   UNL     1     -10.008 -13.558   1.406  0.00  0.00    +0.111 A 
ATOM     35  C   UNL     1     -10.821 -12.441   1.361  0.00  0.00    +0.025 A 
ENDBRANCH  29  30
ENDBRANCH  27  29
ENDBRANCH  26  27
ENDBRANCH   2  21
TORSDOF 9
