REMARK  Name = CHEMBL459478
REMARK  9 active torsions:
REMARK  status: ('A' for Active; 'I' for Inactive)
REMARK    1  A    between atoms: C_1  and  C_2
REMARK    2  A    between atoms: C_2  and  C_3
REMARK    3  A    between atoms: C_2  and  N_4
REMARK    4  A    between atoms: C_6  and  C_9
REMARK    5  A    between atoms: C_14  and  O_18
REMARK    6  A    between atoms: O_18  and  C_19
REMARK    7  A    between atoms: C_22  and  N_26
REMARK    8  A    between atoms: C_27  and  C_29
REMARK    9  A    between atoms: N_32  and  C_35
REMARK                            x       y       z     vdW  Elec       q    Type
REMARK                         _______ _______ _______ _____ _____    ______ ____
ROOT
ATOM      1  C   UNL     1      -1.460  -6.034   8.511  0.00  0.00    +0.164 A 
ATOM      2  C   UNL     1      -0.506  -6.163   9.509  0.00  0.00    +0.051 A 
ATOM      3  C   UNL     1      -0.777  -6.925  10.629  0.00  0.00    +0.027 A 
ATOM      4  C   UNL     1      -2.005  -7.561  10.757  0.00  0.00    +0.036 A 
ATOM      5  C   UNL     1      -2.960  -7.432   9.758  0.00  0.00    +0.065 A 
ATOM      6  C   UNL     1      -2.691  -6.665   8.640  0.00  0.00    +0.167 A 
ATOM      7  F   UNL     1      -3.622  -6.534   7.670  0.00  0.00    -0.202 F 
ENDROOT
BRANCH   4   8
ATOM      8  N   UNL     1      -2.278  -8.334  11.893  0.00  0.00    -0.285 N 
ATOM      9  C   UNL     1      -3.552  -8.508  12.298  0.00  0.00    +0.229 C 
ATOM     10  O   UNL     1      -4.451  -7.907  11.748  0.00  0.00    -0.275 OA
ATOM     11  H   UNL     1      -1.552  -8.744  12.387  0.00  0.00    +0.155 HD
BRANCH   9  12
ATOM     12  C   UNL     1      -3.859  -9.448  13.435  0.00  0.00    +0.163 C 
ATOM     13  C   UNL     1      -5.366  -9.409  13.778  0.00  0.00    +0.041 C 
ATOM     14  C   UNL     1      -5.343  -9.559  15.316  0.00  0.00    +0.115 C 
ATOM     15  N   UNL     1      -4.032  -9.052  15.739  0.00  0.00    -0.271 N 
ATOM     16  C   UNL     1      -3.177  -8.985  14.704  0.00  0.00    +0.232 C 
ATOM     17  O   UNL     1      -2.027  -8.608  14.777  0.00  0.00    -0.274 OA
BRANCH  15  18
ATOM     18  C   UNL     1      -3.713  -8.686  17.052  0.00  0.00    +0.036 A 
ATOM     19  C   UNL     1      -2.484  -8.105  17.333  0.00  0.00    +0.023 A 
ATOM     20  C   UNL     1      -2.172  -7.744  18.629  0.00  0.00    +0.002 A 
ATOM     21  C   UNL     1      -3.083  -7.962  19.647  0.00  0.00    +0.000 A 
ATOM     22  C   UNL     1      -4.308  -8.541  19.370  0.00  0.00    +0.002 A 
ATOM     23  C   UNL     1      -4.628  -8.898  18.075  0.00  0.00    +0.023 A 
ENDBRANCH  15  18
ENDBRANCH   9  12
ENDBRANCH   4   8
BRANCH   1  24
ATOM     24  O   UNL     1      -1.192  -5.284   7.408  0.00  0.00    -0.452 OA
BRANCH  24  30
ATOM     25  C   UNL     1      -0.464  -1.650   4.263  0.00  0.00    +0.040 A 
ATOM     26  C   UNL     1      -1.145  -1.030   5.261  0.00  0.00    +0.046 A 
ATOM     27  C   UNL     1      -1.554  -1.760   6.393  0.00  0.00    +0.082 A 
ATOM     28  C   UNL     1      -1.203  -3.128   6.388  0.00  0.00    +0.080 A 
ATOM     29  S   UNL     1      -0.350  -3.333   4.846  0.00  0.00    -0.082 S 
ATOM     30  C   UNL     1      -1.538  -3.971   7.431  0.00  0.00    +0.146 A 
ATOM     31  C   UNL     1      -2.240  -3.431   8.507  0.00  0.00    +0.067 A 
ATOM     32  C   UNL     1      -2.564  -2.086   8.474  0.00  0.00    +0.115 A 
ATOM     33  N   UNL     1      -2.235  -1.310   7.472  0.00  0.00    -0.254 NA
BRANCH  25  36
ATOM     34  N   UNL     1       1.009  -0.835   1.051  0.00  0.00    -0.335 N 
ATOM     35  C   UNL     1       0.726  -1.745   2.029  0.00  0.00    +0.114 A 
ATOM     36  C   UNL     1       0.051  -1.074   3.003  0.00  0.00    +0.071 A 
ATOM     37  N   UNL     1      -0.064   0.212   2.609  0.00  0.00    -0.345 N 
ATOM     38  C   UNL     1       0.511   0.357   1.448  0.00  0.00    +0.174 A 
ATOM     39  H   UNL     1      -0.502   0.917   3.111  0.00  0.00    +0.167 HD
BRANCH  34  41
ATOM     40  C   UNL     1       0.825  -0.764  -1.387  0.00  0.00    +0.030 C 
ATOM     41  C   UNL     1       1.727  -1.100  -0.198  0.00  0.00    +0.082 C 
ATOM     42  C   UNL     1       2.989  -0.236  -0.255  0.00  0.00    +0.030 C 
ENDBRANCH  34  41
ENDBRANCH  25  36
ENDBRANCH  24  30
ENDBRANCH   1  24
TORSDOF 7
