REMARK  Name = CHEMBL510788
REMARK  5 active torsions:
REMARK  status: ('A' for Active; 'I' for Inactive)
REMARK    1  A    between atoms: C_3  and  C_27
REMARK    2  A    between atoms: C_5  and  N_7
REMARK    3  A    between atoms: N_10  and  C_11
REMARK    4  A    between atoms: C_14  and  C_17
REMARK    5  A    between atoms: C_25  and  N_26
REMARK                            x       y       z     vdW  Elec       q    Type
REMARK                         _______ _______ _______ _____ _____    ______ ____
ROOT
ATOM      1  C   UNL     1      -1.029  -4.930   0.155  0.00  0.00    +0.035 A 
ATOM      2  C   UNL     1      -2.247  -4.260   0.163  0.00  0.00    +0.024 A 
ATOM      3  C   UNL     1      -3.427  -4.973   0.166  0.00  0.00    +0.010 A 
ATOM      4  C   UNL     1      -3.398  -6.367   0.161  0.00  0.00    -0.013 A 
ATOM      5  C   UNL     1      -2.175  -7.037   0.153  0.00  0.00    +0.010 A 
ATOM      6  C   UNL     1      -0.997  -6.319   0.144  0.00  0.00    +0.024 A 
ENDROOT
BRANCH   4   7
ATOM      7  C   UNL     1      -4.666  -7.136   0.165  0.00  0.00    +0.040 A 
ATOM      8  C   UNL     1      -5.539  -7.069   1.264  0.00  0.00    +0.125 A 
ATOM      9  N   UNL     1      -6.659  -7.753   1.262  0.00  0.00    -0.235 NA
ATOM     10  C   UNL     1      -7.002  -8.527   0.222  0.00  0.00    +0.157 A 
ATOM     11  C   UNL     1      -8.108  -9.331  -0.019  0.00  0.00    +0.069 A 
ATOM     12  C   UNL     1      -7.942  -9.911  -1.270  0.00  0.00    +0.137 A 
ATOM     13  N   UNL     1      -6.806  -9.499  -1.784  0.00  0.00    -0.172 NA
ATOM     14  N   UNL     1      -6.189  -8.630  -0.877  0.00  0.00    -0.200 N 
ATOM     15  C   UNL     1      -5.012  -7.932  -0.922  0.00  0.00    +0.129 A 
BRANCH  15  16
ATOM     16  N   UNL     1      -4.186  -8.019  -2.019  0.00  0.00    -0.343 N 
ATOM     17  H   UNL     1      -3.353  -7.523  -2.039  0.00  0.00    +0.144 HD
ATOM     18  H   UNL     1      -4.437  -8.577  -2.772  0.00  0.00    +0.144 HD
ENDBRANCH  15  16
ENDBRANCH   4   7
BRANCH   1  22
ATOM     19  N   UNL     1       1.358  -2.274   0.708  0.00  0.00    -0.269 N 
ATOM     20  C   UNL     1       0.241  -3.023   0.797  0.00  0.00    +0.308 C 
ATOM     21  O   UNL     1      -0.701  -2.633   1.460  0.00  0.00    -0.252 OA
ATOM     22  N   UNL     1       0.168  -4.204   0.152  0.00  0.00    -0.269 N 
ATOM     23  H   UNL     1       2.080  -2.548   0.120  0.00  0.00    +0.156 HD
ATOM     24  H   UNL     1       0.944  -4.550  -0.315  0.00  0.00    +0.156 HD
BRANCH  19  29
ATOM     25  C   UNL     1       2.299   1.137   1.706  0.00  0.00    +0.002 A 
ATOM     26  C   UNL     1       1.714   1.215   2.957  0.00  0.00    +0.012 A 
ATOM     27  C   UNL     1       1.011   0.137   3.462  0.00  0.00    +0.057 A 
ATOM     28  C   UNL     1       0.891  -1.021   2.719  0.00  0.00    +0.035 A 
ATOM     29  C   UNL     1       1.477  -1.102   1.463  0.00  0.00    +0.035 A 
ATOM     30  C   UNL     1       2.183  -0.018   0.958  0.00  0.00    +0.023 A 
BRANCH  27  31
ATOM     31  C   UNL     1       0.375   0.226   4.825  0.00  0.00    +0.417 C 
ATOM     32  F   UNL     1       0.631   1.485   5.379  0.00  0.00    -0.166 F 
ATOM     33  F   UNL     1      -1.007   0.041   4.709  0.00  0.00    -0.166 F 
ATOM     34  F   UNL     1       0.910  -0.766   5.655  0.00  0.00    -0.166 F 
ENDBRANCH  27  31
ENDBRANCH  19  29
ENDBRANCH   1  22
TORSDOF 5
