REMARK  Name = CHEMBL406381
REMARK  10 active torsions:
REMARK  status: ('A' for Active; 'I' for Inactive)
REMARK    1  A    between atoms: C_1  and  C_2
REMARK    2  A    between atoms: C_2  and  C_3
REMARK    3  A    between atoms: C_3  and  N_4
REMARK    4  A    between atoms: N_7  and  C_8
REMARK    5  A    between atoms: C_11  and  O_15
REMARK    6  A    between atoms: O_15  and  C_16
REMARK    7  A    between atoms: C_19  and  O_28
REMARK    8  A    between atoms: C_20  and  O_26
REMARK    9  A    between atoms: O_26  and  C_27
REMARK   10  A    between atoms: O_28  and  C_29
REMARK                            x       y       z     vdW  Elec       q    Type
REMARK                         _______ _______ _______ _____ _____    ______ ____
ROOT
ATOM      1  C   UNL     1      -3.726  -4.798   0.103  0.00  0.00    +0.053 A 
ATOM      2  C   UNL     1      -4.964  -4.170   0.110  0.00  0.00    +0.028 A 
ATOM      3  C   UNL     1      -6.118  -4.922   0.206  0.00  0.00    +0.048 A 
ATOM      4  C   UNL     1      -6.041  -6.305   0.296  0.00  0.00    +0.132 A 
ATOM      5  C   UNL     1      -4.804  -6.933   0.290  0.00  0.00    +0.068 A 
ATOM      6  C   UNL     1      -3.649  -6.182   0.187  0.00  0.00    +0.066 A 
ATOM      7 CL   UNL     1      -2.101  -6.969   0.172  0.00  0.00    -0.082 Cl
ENDROOT
BRANCH   1  11
ATOM      8  N   UNL     1      -1.334  -2.126   0.570  0.00  0.00    -0.299 N 
ATOM      9  C   UNL     1      -2.489  -2.821   0.587  0.00  0.00    +0.304 C 
ATOM     10  O   UNL     1      -3.473  -2.353   1.127  0.00  0.00    -0.253 OA
ATOM     11  N   UNL     1      -2.554  -4.035   0.005  0.00  0.00    -0.268 N 
ATOM     12  H   UNL     1      -0.550  -2.500   0.139  0.00  0.00    +0.150 HD
ATOM     13  H   UNL     1      -1.789  -4.381  -0.481  0.00  0.00    +0.156 HD
BRANCH   8  14
ATOM     14  C   UNL     1      -1.264  -0.807   1.203  0.00  0.00    +0.105 C 
BRANCH  14  16
ATOM     15  C   UNL     1       0.221   1.139   1.703  0.00  0.00    +0.005 C 
ATOM     16  C   UNL     1       0.147  -0.239   1.043  0.00  0.00    +0.015 C 
ENDBRANCH  14  16
ENDBRANCH   8  14
ENDBRANCH   1  11
BRANCH   4  17
ATOM     17  O   UNL     1      -7.178  -7.044   0.392  0.00  0.00    -0.437 OA
BRANCH  17  18
ATOM     18  C   UNL     1      -7.923  -7.211  -0.726  0.00  0.00    +0.231 A 
ATOM     19  C   UNL     1      -9.061  -8.047  -0.720  0.00  0.00    +0.066 A 
ATOM     20  C   UNL     1      -9.471  -8.737   0.429  0.00  0.00    +0.064 A 
ATOM     21  C   UNL     1     -10.580  -9.532   0.378  0.00  0.00    +0.162 A 
ATOM     22  C   UNL     1     -11.312  -9.665  -0.811  0.00  0.00    +0.164 A 
ATOM     23  C   UNL     1     -10.934  -9.003  -1.945  0.00  0.00    +0.078 A 
ATOM     24  C   UNL     1      -9.800  -8.181  -1.922  0.00  0.00    +0.082 A 
ATOM     25  N   UNL     1      -9.389  -7.510  -3.009  0.00  0.00    -0.235 NA
ATOM     26  C   UNL     1      -8.323  -6.748  -2.954  0.00  0.00    +0.225 A 
ATOM     27  N   UNL     1      -7.606  -6.590  -1.852  0.00  0.00    -0.201 NA
BRANCH  22  28
ATOM     28  O   UNL     1     -12.411 -10.463  -0.835  0.00  0.00    -0.491 OA
ATOM     29  C   UNL     1     -13.116 -10.559  -2.074  0.00  0.00    +0.277 C 
ENDBRANCH  22  28
BRANCH  21  30
ATOM     30  O   UNL     1     -10.979 -10.202   1.492  0.00  0.00    -0.491 OA
ATOM     31  C   UNL     1     -10.192 -10.026   2.672  0.00  0.00    +0.277 C 
ENDBRANCH  21  30
ENDBRANCH  17  18
ENDBRANCH   4  17
TORSDOF 7
