REMARK  Name = CHEMBL224035
REMARK  5 active torsions:
REMARK  status: ('A' for Active; 'I' for Inactive)
REMARK    1  A    between atoms: C_1  and  S_2
REMARK    2  A    between atoms: S_2  and  N_5
REMARK    3  A    between atoms: N_8  and  C_11
REMARK    4  A    between atoms: C_11  and  C_12
REMARK    5  A    between atoms: C_22  and  C_24
REMARK                            x       y       z     vdW  Elec       q    Type
REMARK                         _______ _______ _______ _____ _____    ______ ____
ROOT
ATOM      1  C   UNL     1       4.195   0.020  -5.121  0.00  0.00    -0.029 A 
ATOM      2  C   UNL     1       5.275   0.599  -4.467  0.00  0.00    +0.025 A 
ATOM      3  C   UNL     1       6.537   0.070  -4.648  0.00  0.00    +0.113 A 
ATOM      4  N   UNL     1       6.727  -0.975  -5.431  0.00  0.00    -0.240 NA
ATOM      5  C   UNL     1       5.724  -1.554  -6.072  0.00  0.00    +0.125 A 
ATOM      6  C   UNL     1       4.424  -1.077  -5.931  0.00  0.00    +0.048 A 
ATOM      7  N   UNL     1       5.970  -2.653  -6.889  0.00  0.00    -0.279 N 
ATOM      8  C   UNL     1       7.272  -3.067  -7.119  0.00  0.00    +0.164 A 
ATOM      9  N   UNL     1       8.383  -2.606  -6.582  0.00  0.00    -0.232 NA
ATOM     10  C   UNL     1       9.557  -3.108  -6.904  0.00  0.00    +0.129 A 
ATOM     11  C   UNL     1       9.562  -4.126  -7.820  0.00  0.00    +0.041 A 
ATOM     12  S   UNL     1       7.814  -4.285  -8.147  0.00  0.00    -0.052 S 
ATOM     13  H   UNL     1       5.230  -3.130  -7.297  0.00  0.00    +0.155 HD
ENDROOT
BRANCH  11  14
ATOM     14  C   UNL     1      10.699  -4.886  -8.379  0.00  0.00    -0.010 A 
ATOM     15  C   UNL     1      12.003  -4.599  -7.971  0.00  0.00    +0.009 A 
ATOM     16  C   UNL     1      13.060  -5.312  -8.497  0.00  0.00    +0.001 A 
ATOM     17  C   UNL     1      12.830  -6.309  -9.428  0.00  0.00    +0.000 A 
ATOM     18  C   UNL     1      11.541  -6.599  -9.838  0.00  0.00    +0.001 A 
ATOM     19  C   UNL     1      10.474  -5.897  -9.315  0.00  0.00    +0.009 A 
ENDBRANCH  11  14
BRANCH   1  20
ATOM     20  C   UNL     1       2.803   0.571  -4.947  0.00  0.00    +0.119 C 
BRANCH  20  24
ATOM     21  N   UNL     1       0.781  -0.417  -1.404  0.00  0.00    -0.179 NA
ATOM     22  C   UNL     1       0.048  -0.602  -2.666  0.00  0.00    +0.124 C 
ATOM     23  C   UNL     1       0.724   0.244  -3.751  0.00  0.00    +0.102 C 
ATOM     24  N   UNL     1       2.153  -0.090  -3.808  0.00  0.00    -0.296 NA
ATOM     25  C   UNL     1       2.830   0.246  -2.548  0.00  0.00    +0.102 C 
ATOM     26  C   UNL     1       2.241  -0.594  -1.415  0.00  0.00    +0.124 C 
BRANCH  21  28
ATOM     27  C   UNL     1      -0.036   1.802   0.006  0.00  0.00    +0.215 C 
ATOM     28  S   UNL     1      -0.015  -0.012  -0.010  0.00  0.00    +0.029 S 
ATOM     29  O   UNL     1       0.813  -0.501   1.036  0.00  0.00    -0.158 OA
ATOM     30  O   UNL     1      -1.333  -0.515  -0.186  0.00  0.00    -0.158 OA
ENDBRANCH  21  28
ENDBRANCH  20  24
ENDBRANCH   1  20
TORSDOF 4
