REMARK  Name = CHEMBL244486
REMARK  7 active torsions:
REMARK  status: ('A' for Active; 'I' for Inactive)
REMARK    1  A    between atoms: C_3  and  C_7
REMARK    2  A    between atoms: C_7  and  N_9
REMARK    3  A    between atoms: C_15  and  O_20
REMARK    4  A    between atoms: O_20  and  C_21
REMARK    5  A    between atoms: C_24  and  N_27
REMARK    6  A    between atoms: N_30  and  C_31
REMARK    7  A    between atoms: C_33  and  C_38
REMARK                            x       y       z     vdW  Elec       q    Type
REMARK                         _______ _______ _______ _____ _____    ______ ____
ROOT
ATOM      1  C   UNL     1      11.306   5.471  -0.035  0.00  0.00    +0.129 A 
ATOM      2  C   UNL     1      11.844   4.193   0.007  0.00  0.00    +0.048 A 
ATOM      3  C   UNL     1      13.204   4.021   0.180  0.00  0.00    +0.027 A 
ATOM      4  C   UNL     1      14.032   5.128   0.312  0.00  0.00    +0.035 A 
ATOM      5  C   UNL     1      13.493   6.407   0.270  0.00  0.00    +0.027 A 
ATOM      6  C   UNL     1      12.134   6.578   0.091  0.00  0.00    +0.048 A 
ENDROOT
BRANCH   4   7
ATOM      7  N   UNL     1      15.411   4.954   0.488  0.00  0.00    -0.269 N 
ATOM      8  C   UNL     1      16.045   3.933  -0.122  0.00  0.00    +0.308 C 
ATOM      9  O   UNL     1      15.441   3.222  -0.902  0.00  0.00    -0.252 OA
ATOM     10  N   UNL     1      17.347   3.700   0.134  0.00  0.00    -0.267 N 
ATOM     11  H   UNL     1      15.909   5.569   1.049  0.00  0.00    +0.156 HD
ATOM     12  H   UNL     1      17.814   4.230   0.799  0.00  0.00    +0.156 HD
BRANCH  10  13
ATOM     13  C   UNL     1      18.027   2.691  -0.560  0.00  0.00    +0.071 A 
ATOM     14  C   UNL     1      17.326   1.615  -1.088  0.00  0.00    +0.038 A 
ATOM     15  C   UNL     1      18.000   0.622  -1.772  0.00  0.00    +0.057 A 
ATOM     16  C   UNL     1      19.371   0.698  -1.934  0.00  0.00    +0.015 A 
ATOM     17  C   UNL     1      20.074   1.768  -1.410  0.00  0.00    +0.041 A 
ATOM     18  C   UNL     1      19.406   2.768  -0.728  0.00  0.00    +0.145 A 
ATOM     19  F   UNL     1      20.091   3.816  -0.221  0.00  0.00    -0.204 F 
BRANCH  15  20
ATOM     20  C   UNL     1      17.239  -0.546  -2.344  0.00  0.00    +0.417 C 
ATOM     21  F   UNL     1      16.834  -0.245  -3.649  0.00  0.00    -0.166 F 
ATOM     22  F   UNL     1      18.063  -1.676  -2.361  0.00  0.00    -0.166 F 
ATOM     23  F   UNL     1      16.113  -0.801  -1.554  0.00  0.00    -0.166 F 
ENDBRANCH  15  20
ENDBRANCH  10  13
ENDBRANCH   4   7
BRANCH   1  24
ATOM     24  O   UNL     1       9.968   5.640  -0.206  0.00  0.00    -0.456 OA
BRANCH  24  31
ATOM     25  N   UNL     1       8.337  12.370  -2.012  0.00  0.00    -0.143 NA
ATOM     26  C   UNL     1       8.515  11.175  -1.460  0.00  0.00    +0.199 A 
ATOM     27  N   UNL     1       9.176  10.133  -2.034  0.00  0.00    -0.326 N 
ATOM     28  H   UNL     1       9.593  10.137  -2.909  0.00  0.00    +0.169 HD
ATOM     29  C   UNL     1       9.150   9.060  -1.148  0.00  0.00    +0.069 A 
ATOM     30  C   UNL     1       9.658   7.771  -1.211  0.00  0.00    +0.074 A 
ATOM     31  C   UNL     1       9.471   6.904  -0.146  0.00  0.00    +0.131 A 
ATOM     32  C   UNL     1       8.777   7.323   0.982  0.00  0.00    +0.048 A 
ATOM     33  C   UNL     1       8.269   8.605   1.049  0.00  0.00    +0.031 A 
ATOM     34  C   UNL     1       8.453   9.479  -0.013  0.00  0.00    +0.066 A 
ATOM     35  N   UNL     1       8.072  10.801  -0.230  0.00  0.00    -0.326 N 
ATOM     36  H   UNL     1       7.576  11.359   0.389  0.00  0.00    +0.169 HD
BRANCH  25  37
ATOM     37  C   UNL     1       8.728  12.590  -3.272  0.00  0.00    +0.272 C 
ATOM     38  O   UNL     1       9.330  11.724  -3.883  0.00  0.00    -0.268 OA
BRANCH  37  41
ATOM     39  C   UNL     1       8.526  15.354  -5.807  0.00  0.00    +0.020 A 
ATOM     40  C   UNL     1       8.831  14.127  -5.242  0.00  0.00    +0.016 A 
ATOM     41  C   UNL     1       8.428  13.885  -3.925  0.00  0.00    +0.057 A 
ATOM     42  C   UNL     1       7.739  14.883  -3.237  0.00  0.00    +0.123 A 
ATOM     43  N   UNL     1       7.471  16.035  -3.817  0.00  0.00    -0.263 NA
ATOM     44  C   UNL     1       7.839  16.291  -5.058  0.00  0.00    +0.111 A 
ENDBRANCH  37  41
ENDBRANCH  25  37
ENDBRANCH  24  31
ENDBRANCH   1  24
TORSDOF 7
