REMARK  Name = CHEMBL196363
REMARK  5 active torsions:
REMARK  status: ('A' for Active; 'I' for Inactive)
REMARK    1  A    between atoms: C_1  and  C_2
REMARK    2  A    between atoms: C_6  and  N_8
REMARK    3  A    between atoms: N_11  and  C_12
REMARK    4  A    between atoms: C_15  and  C_18
REMARK    5  A    between atoms: C_23  and  N_27
REMARK                            x       y       z     vdW  Elec       q    Type
REMARK                         _______ _______ _______ _____ _____    ______ ____
ROOT
ATOM      1  C   UNL     1       0.294  -6.238   4.518  0.00  0.00    +0.035 A 
ATOM      2  C   UNL     1       0.677  -6.876   3.344  0.00  0.00    +0.024 A 
ATOM      3  C   UNL     1       0.674  -8.253   3.274  0.00  0.00    +0.010 A 
ATOM      4  C   UNL     1       0.286  -9.006   4.382  0.00  0.00    -0.017 A 
ATOM      5  C   UNL     1      -0.097  -8.363   5.559  0.00  0.00    +0.010 A 
ATOM      6  C   UNL     1      -0.087  -6.986   5.625  0.00  0.00    +0.024 A 
ENDROOT
BRANCH   4   7
ATOM      7  C   UNL     1       0.281 -10.486   4.309  0.00  0.00    +0.002 A 
ATOM      8  C   UNL     1       1.408 -11.164   3.987  0.00  0.00    +0.056 A 
ATOM      9  S   UNL     1       0.894 -12.870   4.034  0.00  0.00    -0.076 S 
ATOM     10  C   UNL     1      -0.806 -12.640   4.480  0.00  0.00    +0.114 A 
ATOM     11  C   UNL     1      -0.936 -11.240   4.589  0.00  0.00    +0.055 A 
ATOM     12  C   UNL     1      -2.229 -10.773   4.948  0.00  0.00    +0.128 A 
ATOM     13  N   UNL     1      -3.198 -11.651   5.156  0.00  0.00    -0.220 NA
ATOM     14  C   UNL     1      -3.004 -12.952   5.041  0.00  0.00    +0.224 A 
ATOM     15  N   UNL     1      -1.828 -13.444   4.701  0.00  0.00    -0.228 NA
BRANCH  12  16
ATOM     16  N   UNL     1      -2.472  -9.418   5.079  0.00  0.00    -0.343 N 
ATOM     17  H   UNL     1      -1.887  -8.776   4.648  0.00  0.00    +0.144 HD
ATOM     18  H   UNL     1      -3.228  -9.109   5.603  0.00  0.00    +0.144 HD
ENDBRANCH  12  16
ENDBRANCH   4   7
BRANCH   1  22
ATOM     19  N   UNL     1       0.069  -2.768   3.537  0.00  0.00    -0.269 N 
ATOM     20  C   UNL     1      -0.035  -4.111   3.503  0.00  0.00    +0.308 C 
ATOM     21  O   UNL     1      -0.429  -4.665   2.495  0.00  0.00    -0.252 OA
ATOM     22  N   UNL     1       0.298  -4.840   4.587  0.00  0.00    -0.269 N 
ATOM     23  H   UNL     1       0.454  -2.330   4.312  0.00  0.00    +0.156 HD
ATOM     24  H   UNL     1       0.540  -4.396   5.414  0.00  0.00    +0.156 HD
BRANCH  19  30
ATOM     25  C   UNL     1       0.581   1.170   0.637  0.00  0.00    +0.044 C 
ATOM     26  C   UNL     1      -0.148  -0.091   1.025  0.00  0.00    -0.049 A 
ATOM     27  C   UNL     1      -1.260  -0.494   0.309  0.00  0.00    +0.003 A 
ATOM     28  C   UNL     1      -1.932  -1.650   0.662  0.00  0.00    +0.002 A 
ATOM     29  C   UNL     1      -1.494  -2.406   1.731  0.00  0.00    +0.023 A 
ATOM     30  C   UNL     1      -0.377  -2.004   2.452  0.00  0.00    +0.035 A 
ATOM     31  C   UNL     1       0.298  -0.845   2.092  0.00  0.00    +0.026 A 
ENDBRANCH  19  30
ENDBRANCH   1  22
TORSDOF 4
