REMARK  Name = CHEMBL92516
REMARK  2 active torsions:
REMARK  status: ('A' for Active; 'I' for Inactive)
REMARK    1  A    between atoms: C_6  and  C_7
REMARK    2  A    between atoms: C_11  and  C_16
REMARK                            x       y       z     vdW  Elec       q    Type
REMARK                         _______ _______ _______ _____ _____    ______ ____
ROOT
ATOM      1  C   UNL     1      -1.260  -0.783   0.010  0.00  0.00    +0.019 A 
ATOM      2  C   UNL     1      -2.131  -0.722   1.121  0.00  0.00    +0.123 A 
ATOM      3  N   UNL     1      -3.245  -1.413   1.123  0.00  0.00    -0.235 NA
ATOM      4  C   UNL     1      -3.579  -2.185   0.082  0.00  0.00    +0.163 A 
ATOM      5  C   UNL     1      -4.683  -3.006  -0.167  0.00  0.00    +0.046 A 
ATOM      6  C   UNL     1      -4.500  -3.577  -1.430  0.00  0.00    +0.145 A 
ATOM      7  N   UNL     1      -3.368  -3.145  -1.932  0.00  0.00    -0.173 NA
ATOM      8  N   UNL     1      -2.763  -2.274  -1.018  0.00  0.00    -0.221 N 
ATOM      9  C   UNL     1      -1.598  -1.565  -1.059  0.00  0.00    +0.124 A 
ENDROOT
BRANCH   1  15
ATOM     10  C   UNL     1      -0.017   1.394   0.010  0.00  0.00    +0.028 A 
ATOM     11  C   UNL     1       1.180   2.079   0.002  0.00  0.00    +0.111 A 
ATOM     12  N   UNL     1       2.330   1.433  -0.013  0.00  0.00    -0.263 NA
ATOM     13  C   UNL     1       2.392   0.115  -0.020  0.00  0.00    +0.111 A 
ATOM     14  C   UNL     1       1.243  -0.648  -0.013  0.00  0.00    +0.028 A 
ATOM     15  C   UNL     1       0.002  -0.004   0.002  0.00  0.00    -0.012 A 
ENDBRANCH   1  15
BRANCH   5  16
ATOM     16  C   UNL     1      -5.835  -3.231   0.741  0.00  0.00    -0.006 A 
ATOM     17  C   UNL     1      -7.141  -3.112   0.276  0.00  0.00    +0.016 A 
ATOM     18  C   UNL     1      -8.165  -3.324   1.135  0.00  0.00    +0.046 A 
ATOM     19  S   UNL     1      -7.311  -3.706   2.655  0.00  0.00    -0.104 S 
ATOM     20  C   UNL     1      -5.637  -3.565   2.051  0.00  0.00    +0.053 A 
ENDBRANCH   5  16
TORSDOF 2
