REMARK  Name = CHEMBL98475
REMARK  3 active torsions:
REMARK  status: ('A' for Active; 'I' for Inactive)
REMARK    1  A    between atoms: C_4  and  C_7
REMARK    2  A    between atoms: C_16  and  C_19
REMARK    3  A    between atoms: C_19  and  N_20
REMARK                            x       y       z     vdW  Elec       q    Type
REMARK                         _______ _______ _______ _____ _____    ______ ____
ROOT
ATOM      1  C   UNL     1       9.727   1.623  -0.059  0.00  0.00    +0.041 A 
ATOM      2  C   UNL     1      10.438   0.452  -0.073  0.00  0.00    +0.129 A 
ATOM      3  N   UNL     1       9.740  -0.664  -0.079  0.00  0.00    -0.232 NA
ATOM      4  C   UNL     1       8.422  -0.647  -0.072  0.00  0.00    +0.164 A 
ATOM      5  S   UNL     1       8.055   0.995  -0.048  0.00  0.00    -0.052 S 
ATOM      6  N   UNL     1       7.549  -1.723  -0.078  0.00  0.00    -0.279 N 
ATOM      7  C   UNL     1       8.042  -3.019  -0.200  0.00  0.00    +0.124 A 
ATOM      8  C   UNL     1       7.156  -4.085  -0.315  0.00  0.00    +0.044 A 
ATOM      9  C   UNL     1       7.660  -5.368  -0.436  0.00  0.00    +0.006 A 
ATOM     10  C   UNL     1       9.038  -5.541  -0.438  0.00  0.00    -0.046 A 
ATOM     11  C   UNL     1       9.858  -4.438  -0.320  0.00  0.00    +0.114 A 
ATOM     12  N   UNL     1       9.350  -3.225  -0.211  0.00  0.00    -0.240 NA
ATOM     13  H   UNL     1       6.594  -1.573   0.003  0.00  0.00    +0.155 HD
ENDROOT
BRANCH   1  17
ATOM     14  C   UNL     1      11.114   5.636  -0.029  0.00  0.00    +0.000 A 
ATOM     15  C   UNL     1       9.755   5.378  -0.019  0.00  0.00    +0.001 A 
ATOM     16  C   UNL     1       9.298   4.076  -0.029  0.00  0.00    +0.009 A 
ATOM     17  C   UNL     1      10.210   3.019  -0.049  0.00  0.00    -0.010 A 
ATOM     18  C   UNL     1      11.579   3.287  -0.059  0.00  0.00    +0.009 A 
ATOM     19  C   UNL     1      12.024   4.593  -0.049  0.00  0.00    +0.001 A 
ENDBRANCH   1  17
BRANCH  10  20
ATOM     20  C   UNL     1       9.631  -6.921  -0.567  0.00  0.00    -0.041 C 
BRANCH  20  21
ATOM     21  N   UNL     1       9.839  -7.234  -1.987  0.00  0.00    +0.382 N 
ATOM     22  C   UNL     1      10.917  -6.380  -2.547  0.00  0.00    -0.078 C 
ATOM     23  C   UNL     1      11.390  -7.176  -3.790  0.00  0.00    -0.020 C 
ATOM     24  C   UNL     1      11.304  -8.644  -3.313  0.00  0.00    -0.020 C 
ATOM     25  C   UNL     1      10.308  -8.628  -2.139  0.00  0.00    -0.078 C 
ATOM     26  H   UNL     1       8.982  -7.097  -2.503  0.00  0.00    -0.081 HD
ENDBRANCH  20  21
ENDBRANCH  10  20
TORSDOF 3
