REMARK  Name = CHEMBL396265
REMARK  7 active torsions:
REMARK  status: ('A' for Active; 'I' for Inactive)
REMARK    1  A    between atoms: C_1  and  O_2
REMARK    2  A    between atoms: O_2  and  C_3
REMARK    3  A    between atoms: C_8  and  O_9
REMARK    4  A    between atoms: O_9  and  C_10
REMARK    5  A    between atoms: C_14  and  O_15
REMARK    6  A    between atoms: O_15  and  C_16
REMARK    7  A    between atoms: N_25  and  C_26
REMARK                            x       y       z     vdW  Elec       q    Type
REMARK                         _______ _______ _______ _____ _____    ______ ____
ROOT
ATOM      1  C   UNL     1      -5.986   2.220  -0.028  0.00  0.00    +0.132 A 
ATOM      2  C   UNL     1      -7.209   1.558  -0.004  0.00  0.00    +0.048 A 
ATOM      3  C   UNL     1      -8.388   2.268  -0.031  0.00  0.00    +0.033 A 
ATOM      4  C   UNL     1      -8.357   3.664  -0.081  0.00  0.00    +0.091 A 
ATOM      5  C   UNL     1      -7.121   4.330  -0.104  0.00  0.00    +0.071 A 
ATOM      6  C   UNL     1      -5.941   3.603  -0.072  0.00  0.00    +0.074 A 
ATOM      7  N   UNL     1      -7.413   5.683  -0.153  0.00  0.00    -0.326 N 
ATOM      8  C   UNL     1      -8.774   5.804  -0.158  0.00  0.00    +0.198 A 
ATOM      9  N   UNL     1      -9.326   4.618  -0.116  0.00  0.00    -0.214 NA
ATOM     10  N   UNL     1      -9.465   6.999  -0.200  0.00  0.00    -0.285 N 
ATOM     11  H   UNL     1      -8.983   7.834  -0.314  0.00  0.00    +0.155 HD
ATOM     12  H   UNL     1      -6.771   6.410  -0.178  0.00  0.00    +0.169 HD
ENDROOT
BRANCH  10  13
ATOM     13  C   UNL     1     -10.858   7.007  -0.078  0.00  0.00    +0.034 A 
ATOM     14  C   UNL     1     -11.503   5.978   0.596  0.00  0.00    +0.025 A 
ATOM     15  C   UNL     1     -12.879   5.988   0.715  0.00  0.00    +0.022 A 
ATOM     16  C   UNL     1     -13.615   7.022   0.164  0.00  0.00    +0.041 A 
ATOM     17  C   UNL     1     -12.975   8.049  -0.509  0.00  0.00    +0.022 A 
ATOM     18  C   UNL     1     -11.598   8.046  -0.626  0.00  0.00    +0.025 A 
ATOM     19 CL   UNL     1     -15.344   7.031   0.314  0.00  0.00    -0.084 Cl
ENDBRANCH  10  13
BRANCH   1  20
ATOM     20  O   UNL     1      -4.829   1.507  -0.001  0.00  0.00    -0.437 OA
BRANCH  20  30
ATOM     21  C   UNL     1      -1.133  -0.500  -0.242  0.00  0.00    +0.162 A 
ATOM     22  C   UNL     1      -2.321   0.161  -0.121  0.00  0.00    +0.064 A 
ATOM     23  C   UNL     1      -3.204   0.205  -1.207  0.00  0.00    +0.066 A 
ATOM     24  C   UNL     1      -2.860  -0.437  -2.424  0.00  0.00    +0.082 A 
ATOM     25  C   UNL     1      -1.636  -1.110  -2.525  0.00  0.00    +0.078 A 
ATOM     26  C   UNL     1      -0.783  -1.133  -1.444  0.00  0.00    +0.164 A 
ATOM     27  N   UNL     1      -3.724  -0.380  -3.449  0.00  0.00    -0.235 NA
ATOM     28  C   UNL     1      -4.862   0.258  -3.323  0.00  0.00    +0.225 A 
ATOM     29  N   UNL     1      -5.224   0.872  -2.207  0.00  0.00    -0.201 NA
ATOM     30  C   UNL     1      -4.446   0.876  -1.135  0.00  0.00    +0.231 A 
BRANCH  21  32
ATOM     31  C   UNL     1      -0.688   0.121   2.010  0.00  0.00    +0.277 C 
ATOM     32  O   UNL     1      -0.276  -0.542   0.813  0.00  0.00    -0.491 OA
ENDBRANCH  21  32
BRANCH  26  33
ATOM     33  O   UNL     1       0.407  -1.780  -1.541  0.00  0.00    -0.491 OA
ATOM     34  C   UNL     1       0.706  -2.405  -2.791  0.00  0.00    +0.277 C 
ENDBRANCH  26  33
ENDBRANCH  20  30
ENDBRANCH   1  20
TORSDOF 5
