REMARK  Name = CHEMBL225311
REMARK  8 active torsions:
REMARK  status: ('A' for Active; 'I' for Inactive)
REMARK    1  A    between atoms: C_1  and  N_2
REMARK    2  A    between atoms: N_5  and  C_8
REMARK    3  A    between atoms: C_8  and  C_9
REMARK    4  A    between atoms: C_21  and  C_22
REMARK    5  A    between atoms: C_24  and  C_27
REMARK    6  A    between atoms: C_28  and  C_29
REMARK    7  A    between atoms: C_29  and  N_30
REMARK    8  A    between atoms: C_31  and  C_33
REMARK                            x       y       z     vdW  Elec       q    Type
REMARK                         _______ _______ _______ _____ _____    ______ ____
ROOT
ATOM      1  C   UNL     1      -0.094  -4.478   2.524  0.00  0.00    -0.033 A 
ATOM      2  C   UNL     1       1.262  -4.705   2.678  0.00  0.00    +0.005 A 
ATOM      3  C   UNL     1       1.763  -5.135   3.889  0.00  0.00    +0.010 A 
ATOM      4  C   UNL     1       0.898  -5.341   4.967  0.00  0.00    +0.004 A 
ATOM      5  C   UNL     1      -0.467  -5.109   4.800  0.00  0.00    -0.033 A 
ATOM      6  C   UNL     1      -0.957  -4.675   3.588  0.00  0.00    +0.009 A 
ATOM      7  C   UNL     1      -1.130  -5.415   6.120  0.00  0.00    +0.075 C 
ATOM      8  C   UNL     1      -0.019  -5.841   7.049  0.00  0.00    +0.010 A 
ATOM      9  C   UNL     1       1.151  -5.790   6.354  0.00  0.00    +0.070 A 
ATOM     10  N   UNL     1       2.147  -6.179   7.205  0.00  0.00    -0.276 N 
ATOM     11  H   UNL     1       3.090  -6.240   6.989  0.00  0.00    +0.189 HD
ATOM     12  N   UNL     1       1.566  -6.472   8.445  0.00  0.00    -0.173 NA
ATOM     13  C   UNL     1       0.268  -6.270   8.354  0.00  0.00    +0.097 A 
ENDROOT
BRANCH  13  14
ATOM     14  C   UNL     1      -0.721  -6.463   9.445  0.00  0.00    +0.011 A 
ATOM     15  C   UNL     1      -0.559  -7.478  10.375  0.00  0.00    +0.034 A 
ATOM     16  C   UNL     1      -1.495  -7.619  11.364  0.00  0.00    +0.063 A 
ATOM     17  S   UNL     1      -2.638  -6.300  10.990  0.00  0.00    -0.088 S 
ATOM     18  C   UNL     1      -1.808  -5.639   9.555  0.00  0.00    +0.056 A 
BRANCH  16  19
ATOM     19  C   UNL     1      -1.545  -8.579  12.425  0.00  0.00    -0.058 C 
ATOM     20  C   UNL     1      -1.585  -9.366  13.295  0.00  0.00    -0.077 C 
BRANCH  20  21
ATOM     21  C   UNL     1      -1.637 -10.353  14.386  0.00  0.00    +0.194 C 
BRANCH  21  22
ATOM     22  N   UNL     1      -2.829 -10.116  15.204  0.00  0.00    -0.300 N 
ATOM     23  C   UNL     1      -3.084 -10.903  16.267  0.00  0.00    +0.245 C 
ATOM     24  O   UNL     1      -2.326 -11.810  16.548  0.00  0.00    -0.270 OA
ATOM     25  H   UNL     1      -3.434  -9.392  14.980  0.00  0.00    +0.150 HD
BRANCH  23  26
ATOM     26  C   UNL     1      -4.288 -10.664  17.092  0.00  0.00    +0.037 A 
ATOM     27  C   UNL     1      -5.164  -9.627  16.769  0.00  0.00    +0.013 A 
ATOM     28  C   UNL     1      -6.285  -9.409  17.543  0.00  0.00    +0.001 A 
ATOM     29  C   UNL     1      -6.542 -10.216  18.637  0.00  0.00    +0.000 A 
ATOM     30  C   UNL     1      -5.677 -11.245  18.963  0.00  0.00    +0.001 A 
ATOM     31  C   UNL     1      -4.555 -11.477  18.194  0.00  0.00    +0.013 A 
ENDBRANCH  23  26
ENDBRANCH  21  22
ENDBRANCH  20  21
ENDBRANCH  16  19
ENDBRANCH  13  14
BRANCH   1  32
ATOM     32  C   UNL     1      -0.632  -4.009   1.196  0.00  0.00    +0.119 C 
BRANCH  32  37
ATOM     33  C   UNL     1      -0.018   1.465   0.010  0.00  0.00    -0.096 C 
ATOM     34  N   UNL     1       0.002  -0.004   0.002  0.00  0.00    +0.379 N 
ATOM     35  C   UNL     1      -1.376  -0.512   0.011  0.00  0.00    -0.064 C 
ATOM     36  C   UNL     1      -1.356  -2.042  -0.017  0.00  0.00    +0.066 C 
ATOM     37  N   UNL     1      -0.624  -2.541   1.156  0.00  0.00    -0.302 NA
ATOM     38  C   UNL     1       0.750  -2.020   1.175  0.00  0.00    +0.066 C 
ATOM     39  C   UNL     1       0.713  -0.490   1.192  0.00  0.00    -0.064 C 
ATOM     40  H   UNL     1       0.475  -0.329  -0.828  0.00  0.00    -0.082 HD
ENDBRANCH  32  37
ENDBRANCH   1  32
TORSDOF 7
