REMARK  Name = CHEMBL375890
REMARK  8 active torsions:
REMARK  status: ('A' for Active; 'I' for Inactive)
REMARK    1  A    between atoms: C_1  and  N_2
REMARK    2  A    between atoms: N_5  and  C_8
REMARK    3  A    between atoms: C_8  and  C_9
REMARK    4  A    between atoms: C_21  and  C_22
REMARK    5  A    between atoms: C_25  and  C_27
REMARK    6  A    between atoms: C_28  and  C_29
REMARK    7  A    between atoms: C_29  and  O_30
REMARK    8  A    between atoms: O_30  and  C_31
REMARK                            x       y       z     vdW  Elec       q    Type
REMARK                         _______ _______ _______ _____ _____    ______ ____
ROOT
ATOM      1  C   UNL     1      -0.094  -4.478   2.524  0.00  0.00    -0.033 A 
ATOM      2  C   UNL     1       1.262  -4.706   2.678  0.00  0.00    +0.005 A 
ATOM      3  C   UNL     1       1.761  -5.135   3.890  0.00  0.00    +0.010 A 
ATOM      4  C   UNL     1       0.896  -5.341   4.966  0.00  0.00    +0.006 A 
ATOM      5  C   UNL     1      -0.467  -5.110   4.802  0.00  0.00    -0.033 A 
ATOM      6  C   UNL     1      -0.956  -4.675   3.587  0.00  0.00    +0.009 A 
ATOM      7  C   UNL     1      -1.146  -5.412   6.115  0.00  0.00    +0.075 C 
ATOM      8  C   UNL     1      -0.054  -5.842   7.062  0.00  0.00    +0.010 A 
ATOM      9  C   UNL     1       1.158  -5.793   6.357  0.00  0.00    +0.097 A 
ATOM     10  N   UNL     1       2.124  -6.167   7.175  0.00  0.00    -0.173 NA
ATOM     11  H   UNL     1       2.052  -6.766   9.208  0.00  0.00    +0.189 HD
ATOM     12  N   UNL     1       1.566  -6.466   8.424  0.00  0.00    -0.276 N 
ATOM     13  C   UNL     1       0.218  -6.261   8.344  0.00  0.00    +0.076 A 
ENDROOT
BRANCH  13  14
ATOM     14  C   UNL     1      -0.761  -6.454   9.426  0.00  0.00    +0.038 A 
ATOM     15  C   UNL     1      -0.872  -7.504  10.321  0.00  0.00    +0.019 A 
ATOM     16  C   UNL     1      -1.875  -7.470  11.255  0.00  0.00    +0.025 A 
ATOM     17  C   UNL     1      -2.736  -6.386  11.266  0.00  0.00    +0.063 A 
ATOM     18  S   UNL     1      -2.104  -5.390   9.926  0.00  0.00    -0.078 S 
BRANCH  17  19
ATOM     19  C   UNL     1      -3.845  -6.128  12.134  0.00  0.00    -0.056 C 
ATOM     20  C   UNL     1      -4.754  -5.916  12.846  0.00  0.00    -0.056 C 
BRANCH  20  21
ATOM     21  C   UNL     1      -5.894  -5.650  13.738  0.00  0.00    +0.318 C 
BRANCH  21  22
ATOM     22  O   UNL     1      -6.498  -4.404  13.382  0.00  0.00    -0.480 OA
BRANCH  22  23
ATOM     23  C   UNL     1      -7.573  -4.008  14.113  0.00  0.00    +0.122 A 
ATOM     24  C   UNL     1      -8.033  -4.798  15.156  0.00  0.00    +0.046 A 
ATOM     25  C   UNL     1      -9.125  -4.393  15.899  0.00  0.00    +0.004 A 
ATOM     26  C   UNL     1      -9.760  -3.200  15.602  0.00  0.00    +0.000 A 
ATOM     27  C   UNL     1      -9.303  -2.411  14.563  0.00  0.00    +0.004 A 
ATOM     28  C   UNL     1      -8.208  -2.809  13.821  0.00  0.00    +0.046 A 
ENDBRANCH  22  23
ENDBRANCH  21  22
ENDBRANCH  20  21
ENDBRANCH  17  19
ENDBRANCH  13  14
BRANCH   1  29
ATOM     29  C   UNL     1      -0.632  -4.009   1.196  0.00  0.00    +0.119 C 
BRANCH  29  34
ATOM     30  C   UNL     1      -0.018   1.465   0.010  0.00  0.00    -0.096 C 
ATOM     31  N   UNL     1       0.002  -0.004   0.002  0.00  0.00    +0.379 N 
ATOM     32  C   UNL     1      -1.376  -0.512   0.011  0.00  0.00    -0.064 C 
ATOM     33  C   UNL     1      -1.356  -2.042  -0.017  0.00  0.00    +0.066 C 
ATOM     34  N   UNL     1      -0.624  -2.541   1.156  0.00  0.00    -0.302 NA
ATOM     35  C   UNL     1       0.750  -2.020   1.175  0.00  0.00    +0.066 C 
ATOM     36  C   UNL     1       0.713  -0.490   1.192  0.00  0.00    -0.064 C 
ATOM     37  H   UNL     1       0.475  -0.329  -0.828  0.00  0.00    -0.082 HD
ENDBRANCH  29  34
ENDBRANCH   1  29
TORSDOF 7
