REMARK  Name = CHEMBL238737
REMARK  8 active torsions:
REMARK  status: ('A' for Active; 'I' for Inactive)
REMARK    1  A    between atoms: C_1  and  C_2
REMARK    2  A    between atoms: C_4  and  N_12
REMARK    3  A    between atoms: C_7  and  C_8
REMARK    4  A    between atoms: C_13  and  C_15
REMARK    5  A    between atoms: C_16  and  N_21
REMARK    6  A    between atoms: N_19  and  C_20
REMARK    7  A    between atoms: N_21  and  C_22
REMARK    8  A    between atoms: C_22  and  C_23
REMARK                            x       y       z     vdW  Elec       q    Type
REMARK                         _______ _______ _______ _____ _____    ______ ____
ROOT
ATOM      1  N   UNL     1       0.796  -3.035  -2.164  0.00  0.00    -0.280 N 
ATOM      2  C   UNL     1       0.038  -4.115  -2.438  0.00  0.00    +0.268 C 
ATOM      3  O   UNL     1      -0.794  -4.495  -1.633  0.00  0.00    -0.268 OA
ATOM      4  H   UNL     1       1.410  -2.691  -2.832  0.00  0.00    +0.155 HD
ENDROOT
BRANCH   1   8
ATOM      5  C   UNL     1       2.939  -0.593   1.525  0.00  0.00    +0.044 C 
ATOM      6  C   UNL     1       1.721  -1.217   0.895  0.00  0.00    -0.037 A 
ATOM      7  C   UNL     1       1.821  -1.834  -0.337  0.00  0.00    +0.027 A 
ATOM      8  C   UNL     1       0.698  -2.410  -0.917  0.00  0.00    +0.034 A 
ATOM      9  C   UNL     1      -0.522  -2.363  -0.256  0.00  0.00    +0.024 A 
ATOM     10  C   UNL     1      -0.616  -1.745   0.976  0.00  0.00    +0.014 A 
ATOM     11  C   UNL     1       0.505  -1.177   1.553  0.00  0.00    +0.058 A 
BRANCH  11  12
ATOM     12  C   UNL     1       0.401  -0.509   2.900  0.00  0.00    +0.418 C 
ATOM     13  F   UNL     1      -0.917  -0.595   3.362  0.00  0.00    -0.166 F 
ATOM     14  F   UNL     1       1.255  -1.147   3.805  0.00  0.00    -0.166 F 
ATOM     15  F   UNL     1       0.767   0.836   2.782  0.00  0.00    -0.166 F 
ENDBRANCH  11  12
ENDBRANCH   1   8
BRANCH   2  16
ATOM     16  C   UNL     1       0.209  -4.808  -3.661  0.00  0.00    +0.146 A 
ATOM     17  C   UNL     1       0.258  -6.183  -3.843  0.00  0.00    +0.150 A 
ATOM     18  N   UNL     1       0.430  -6.407  -5.151  0.00  0.00    -0.220 NA
ATOM     19  C   UNL     1       0.491  -5.269  -5.793  0.00  0.00    +0.201 A 
ATOM     20  N   UNL     1       0.355  -4.251  -4.925  0.00  0.00    -0.328 N 
ATOM     21  C   UNL     1       0.364  -2.823  -5.250  0.00  0.00    +0.150 C 
BRANCH  17  22
ATOM     22  N   UNL     1       0.148  -7.148  -2.851  0.00  0.00    -0.323 N 
ATOM     23  H   UNL     1       0.025  -6.881  -1.927  0.00  0.00    +0.148 HD
BRANCH  22  24
ATOM     24  C   UNL     1       0.219  -8.569  -3.201  0.00  0.00    +0.138 C 
BRANCH  24  25
ATOM     25  C   UNL     1       0.075  -9.401  -1.953  0.00  0.00    -0.028 A 
ATOM     26  C   UNL     1       1.187  -9.766  -1.210  0.00  0.00    +0.025 A 
ATOM     27  C   UNL     1       1.016 -10.530  -0.071  0.00  0.00    +0.111 A 
ATOM     28  N   UNL     1      -0.188 -10.911   0.310  0.00  0.00    -0.263 NA
ATOM     29  C   UNL     1      -1.268 -10.582  -0.371  0.00  0.00    +0.111 A 
ATOM     30  C   UNL     1      -1.175  -9.815  -1.517  0.00  0.00    +0.025 A 
ENDBRANCH  24  25
ENDBRANCH  22  24
ENDBRANCH  17  22
ENDBRANCH   2  16
TORSDOF 6
