REMARK  Name = CHEMBL380915
REMARK  3 active torsions:
REMARK  status: ('A' for Active; 'I' for Inactive)
REMARK    1  A    between atoms: C_1  and  N_2
REMARK    2  A    between atoms: C_4  and  C_12
REMARK    3  A    between atoms: C_14  and  C_19
REMARK                            x       y       z     vdW  Elec       q    Type
REMARK                         _______ _______ _______ _____ _____    ______ ____
ROOT
ATOM      1  C   UNL     1       0.038  -3.208  -1.631  0.00  0.00    +0.025 C 
ATOM      2  C   UNL     1      -0.075  -3.012  -3.001  0.00  0.00    +0.068 C 
ATOM      3  C   UNL     1      -0.190  -4.044  -4.050  0.00  0.00    +0.121 C 
ATOM      4  N   UNL     1      -0.274  -3.424  -5.198  0.00  0.00    -0.177 NA
ATOM      5  N   UNL     1      -0.226  -2.041  -5.029  0.00  0.00    -0.202 N 
ATOM      6  C   UNL     1      -0.112  -1.734  -3.721  0.00  0.00    +0.265 C 
ATOM      7  O   UNL     1      -0.050  -0.617  -3.234  0.00  0.00    -0.268 OA
ATOM      8  H   UNL     1      -0.272  -1.392  -5.748  0.00  0.00    +0.178 HD
ENDROOT
BRANCH   1  12
ATOM      9  C   UNL     1      -1.269   1.143   0.332  0.00  0.00    +0.149 C 
ATOM     10  N   UNL     1      -0.602  -0.148   0.147  0.00  0.00    -0.349 N 
ATOM     11  C   UNL     1      -0.817  -0.978  -0.891  0.00  0.00    +0.094 A 
ATOM     12  C   UNL     1      -0.026  -2.105  -0.754  0.00  0.00    +0.002 A 
ATOM     13  C   UNL     1       0.736  -1.921   0.498  0.00  0.00    +0.021 A 
ATOM     14  C   UNL     1       0.336  -0.678   1.011  0.00  0.00    +0.050 A 
ATOM     15  C   UNL     1       0.895  -0.220   2.200  0.00  0.00    +0.026 A 
ATOM     16  C   UNL     1       1.834  -0.984   2.858  0.00  0.00    +0.003 A 
ATOM     17  C   UNL     1       2.231  -2.211   2.348  0.00  0.00    +0.016 A 
ATOM     18  C   UNL     1       1.681  -2.686   1.175  0.00  0.00    +0.028 A 
ATOM     19 BR   UNL     1       2.225  -4.359   0.480  0.00  0.00    -0.050 Br
ENDBRANCH   1  12
BRANCH   3  20
ATOM     20  C   UNL     1      -0.207  -5.510  -3.841  0.00  0.00    +0.109 A 
ATOM     21  C   UNL     1      -0.317  -6.372  -4.934  0.00  0.00    +0.140 A 
ATOM     22  N   UNL     1      -0.331  -7.678  -4.742  0.00  0.00    -0.260 NA
ATOM     23  C   UNL     1      -0.242  -8.169  -3.517  0.00  0.00    +0.130 A 
ATOM     24  C   UNL     1      -0.134  -7.318  -2.431  0.00  0.00    +0.131 A 
ATOM     25  N   UNL     1      -0.113  -6.010  -2.612  0.00  0.00    -0.250 NA
ENDBRANCH   3  20
TORSDOF 2
