REMARK  Name = CHEMBL223147
REMARK  5 active torsions:
REMARK  status: ('A' for Active; 'I' for Inactive)
REMARK    1  A    between atoms: C_1  and  C_2
REMARK    2  A    between atoms: C_2  and  N_3
REMARK    3  A    between atoms: C_10  and  C_13
REMARK    4  A    between atoms: C_10  and  C_14
REMARK    5  A    between atoms: C_27  and  C_28
REMARK                            x       y       z     vdW  Elec       q    Type
REMARK                         _______ _______ _______ _____ _____    ______ ____
ROOT
ATOM      1  N   UNL     1       0.711  -0.489   1.189  0.00  0.00    -0.271 N 
ATOM      2  C   UNL     1       2.088  -0.726   1.232  0.00  0.00    +0.041 A 
ATOM      3  C   UNL     1       3.058  -0.579   0.252  0.00  0.00    +0.034 A 
ATOM      4  C   UNL     1       4.389  -0.885   0.543  0.00  0.00    +0.005 A 
ATOM      5  C   UNL     1       4.749  -1.340   1.823  0.00  0.00    +0.048 A 
ATOM      6  C   UNL     1       3.764  -1.481   2.797  0.00  0.00    +0.032 A 
ATOM      7  C   UNL     1       2.458  -1.178   2.499  0.00  0.00    -0.010 A 
ATOM      8  C   UNL     1       1.187  -1.228   3.317  0.00  0.00    +0.068 C 
ATOM      9  C   UNL     1       0.113  -0.753   2.362  0.00  0.00    +0.230 C 
ATOM     10  O   UNL     1      -1.069  -0.635   2.610  0.00  0.00    -0.274 OA
ATOM     11  C   UNL     1       0.904  -2.659   3.780  0.00  0.00    +0.025 C 
ATOM     12  C   UNL     1       1.285  -0.285   4.518  0.00  0.00    +0.025 C 
ATOM     13  N   UNL     1       6.107  -1.558   1.812  0.00  0.00    -0.353 N 
ATOM     14  H   UNL     1       6.625  -1.875   2.569  0.00  0.00    +0.166 HD
ATOM     15  C   UNL     1       6.627  -1.261   0.561  0.00  0.00    +0.069 A 
ATOM     16  C   UNL     1       5.626  -0.843  -0.246  0.00  0.00    -0.013 A 
ATOM     17  C   UNL     1       5.698  -0.402  -1.675  0.00  0.00    +0.038 C 
ATOM     18  C   UNL     1       6.742  -1.120  -2.479  0.00  0.00    +0.009 C 
ATOM     19  C   UNL     1       8.149  -0.660  -2.226  0.00  0.00    +0.039 C 
ATOM     20  C   UNL     1       8.717  -1.165  -0.936  0.00  0.00    +0.002 A 
ATOM     21  C   UNL     1       8.059  -1.412   0.240  0.00  0.00    +0.086 A 
ATOM     22  N   UNL     1       8.994  -1.854   1.141  0.00  0.00    -0.275 N 
ATOM     23  N   UNL     1      10.233  -1.882   0.493  0.00  0.00    -0.178 NA
ATOM     24  H   UNL     1       8.826  -2.103   2.064  0.00  0.00    +0.189 HD
ATOM     25  C   UNL     1      10.070  -1.474  -0.737  0.00  0.00    +0.064 A 
ATOM     26  C   UNL     1      11.158  -1.355  -1.772  0.00  0.00    +0.068 C 
ENDROOT
BRANCH   1  28
ATOM     27  C   UNL     1      -0.019   1.526   0.010  0.00  0.00    +0.025 C 
ATOM     28  C   UNL     1       0.002  -0.004   0.002  0.00  0.00    +0.110 C 
ENDBRANCH   1  28
TORSDOF 1
