REMARK  Name = CHEMBL200764
REMARK  11 active torsions:
REMARK  status: ('A' for Active; 'I' for Inactive)
REMARK    1  A    between atoms: C_1  and  O_2
REMARK    2  A    between atoms: O_2  and  C_3
REMARK    3  A    between atoms: C_8  and  O_9
REMARK    4  A    between atoms: O_9  and  C_10
REMARK    5  A    between atoms: C_10  and  C_11
REMARK    6  A    between atoms: C_11  and  C_12
REMARK    7  A    between atoms: C_12  and  N_13
REMARK    8  A    between atoms: C_21  and  N_22
REMARK    9  A    between atoms: C_26  and  O_30
REMARK   10  A    between atoms: O_30  and  C_31
REMARK   11  A    between atoms: C_31  and  C_32
REMARK                            x       y       z     vdW  Elec       q    Type
REMARK                         _______ _______ _______ _____ _____    ______ ____
ROOT
ATOM      1  C   UNL     1      -1.175  -0.594   0.102  0.00  0.00    +0.162 A 
ATOM      2  C   UNL     1      -2.336   0.129   0.082  0.00  0.00    +0.063 A 
ATOM      3  C   UNL     1      -3.563  -0.539   0.060  0.00  0.00    +0.048 A 
ATOM      4  C   UNL     1      -3.596  -1.959   0.058  0.00  0.00    +0.080 A 
ATOM      5  C   UNL     1      -2.390  -2.674   0.079  0.00  0.00    +0.078 A 
ATOM      6  C   UNL     1      -1.204  -1.997   0.094  0.00  0.00    +0.164 A 
ATOM      7  N   UNL     1      -4.784  -2.574   0.037  0.00  0.00    -0.235 NA
ATOM      8  C   UNL     1      -5.897  -1.878   0.017  0.00  0.00    +0.224 A 
ATOM      9  N   UNL     1      -5.921  -0.557   0.018  0.00  0.00    -0.216 NA
ATOM     10  C   UNL     1      -4.799   0.158   0.038  0.00  0.00    +0.164 A 
ENDROOT
BRANCH  10  11
ATOM     11  N   UNL     1      -4.836   1.518   0.039  0.00  0.00    -0.228 NA
ATOM     12  C   UNL     1      -4.755   2.173  -1.085  0.00  0.00    +0.098 C 
ATOM     13  C   UNL     1      -4.755   1.467  -2.432  0.00  0.00    +0.142 C 
ATOM     14  C   UNL     1      -5.784   2.166  -3.295  0.00  0.00    +0.203 C 
ATOM     15  C   UNL     1      -5.893   3.636  -3.246  0.00  0.00    +0.167 C 
ATOM     16  C   UNL     1      -5.372   4.348  -2.216  0.00  0.00    +0.102 C 
ATOM     17  C   UNL     1      -4.664   3.658  -1.131  0.00  0.00    +0.204 C 
ATOM     18  O   UNL     1      -4.024   4.279  -0.302  0.00  0.00    -0.286 OA
ATOM     19  O   UNL     1      -6.509   1.524  -4.019  0.00  0.00    -0.288 OA
BRANCH  15  20
ATOM     20  O   UNL     1      -6.526   4.288  -4.248  0.00  0.00    -0.482 OA
BRANCH  20  21
ATOM     21  C   UNL     1      -6.603   5.712  -4.150  0.00  0.00    +0.284 C 
BRANCH  21  22
ATOM     22  C   UNL     1      -7.337   6.259  -5.347  0.00  0.00    +0.078 A 
ATOM     23  C   UNL     1      -7.813   5.392  -6.312  0.00  0.00    +0.027 A 
ATOM     24  C   UNL     1      -8.487   5.905  -7.409  0.00  0.00    +0.003 A 
ATOM     25  C   UNL     1      -8.658   7.279  -7.495  0.00  0.00    +0.020 A 
ATOM     26  C   UNL     1      -8.154   8.084  -6.491  0.00  0.00    +0.111 A 
ATOM     27  N   UNL     1      -7.522   7.560  -5.459  0.00  0.00    -0.256 NA
ENDBRANCH  21  22
ENDBRANCH  20  21
ENDBRANCH  15  20
ENDBRANCH  10  11
BRANCH   1  29
ATOM     28  C   UNL     1      -0.017   1.482   0.129  0.00  0.00    +0.277 C 
ATOM     29  O   UNL     1       0.019   0.054   0.123  0.00  0.00    -0.491 OA
ENDBRANCH   1  29
BRANCH   6  30
ATOM     30  O   UNL     1      -0.036  -2.691   0.108  0.00  0.00    -0.488 OA
BRANCH  30  31
ATOM     31  C   UNL     1      -0.129  -4.117   0.100  0.00  0.00    +0.227 C 
BRANCH  31  32
ATOM     32  C   UNL     1       1.277  -4.720   0.117  0.00  0.00    +0.022 C 
BRANCH  32  33
ATOM     33  C   UNL     1       1.178  -6.247   0.108  0.00  0.00    -0.076 C 
BRANCH  33  34
ATOM     34  N   UNL     1       2.528  -6.825   0.126  0.00  0.00    +0.380 N 
ATOM     35  C   UNL     1       3.180  -6.566   1.435  0.00  0.00    -0.079 C 
ATOM     36  C   UNL     1       4.274  -7.661   1.509  0.00  0.00    -0.020 C 
ATOM     37  C   UNL     1       3.583  -8.884   0.863  0.00  0.00    -0.020 C 
ATOM     38  C   UNL     1       2.454  -8.297  -0.004  0.00  0.00    -0.079 C 
ATOM     39  H   UNL     1       3.083  -6.438  -0.623  0.00  0.00    -0.082 HD
ENDBRANCH  33  34
ENDBRANCH  32  33
ENDBRANCH  31  32
ENDBRANCH  30  31
ENDBRANCH   6  30
TORSDOF 10
