REMARK  Name = CHEMBL199455
REMARK  10 active torsions:
REMARK  status: ('A' for Active; 'I' for Inactive)
REMARK    1  A    between atoms: C_1  and  O_2
REMARK    2  A    between atoms: O_2  and  C_3
REMARK    3  A    between atoms: C_8  and  O_9
REMARK    4  A    between atoms: O_9  and  C_10
REMARK    5  A    between atoms: C_10  and  C_11
REMARK    6  A    between atoms: C_11  and  C_12
REMARK    7  A    between atoms: C_12  and  N_13
REMARK    8  A    between atoms: C_21  and  N_22
REMARK    9  A    between atoms: C_27  and  O_31
REMARK   10  A    between atoms: O_31  and  C_32
REMARK                            x       y       z     vdW  Elec       q    Type
REMARK                         _______ _______ _______ _____ _____    ______ ____
ROOT
ATOM      1  C   UNL     1       0.650  -0.579   1.001  0.00  0.00    +0.162 A 
ATOM      2  C   UNL     1       1.208   0.163   2.005  0.00  0.00    +0.063 A 
ATOM      3  C   UNL     1       1.834  -0.484   3.073  0.00  0.00    +0.048 A 
ATOM      4  C   UNL     1       1.886  -1.903   3.108  0.00  0.00    +0.080 A 
ATOM      5  C   UNL     1       1.306  -2.639   2.065  0.00  0.00    +0.078 A 
ATOM      6  C   UNL     1       0.694  -1.982   1.035  0.00  0.00    +0.164 A 
ATOM      7  N   UNL     1       2.491  -2.498   4.143  0.00  0.00    -0.235 NA
ATOM      8  C   UNL     1       3.026  -1.783   5.106  0.00  0.00    +0.224 A 
ATOM      9  N   UNL     1       3.004  -0.463   5.121  0.00  0.00    -0.216 NA
ATOM     10  C   UNL     1       2.430   0.233   4.143  0.00  0.00    +0.164 A 
ENDROOT
BRANCH  10  11
ATOM     11  N   UNL     1       2.414   1.594   4.168  0.00  0.00    -0.228 NA
ATOM     12  C   UNL     1       1.384   2.225   4.657  0.00  0.00    +0.098 C 
ATOM     13  C   UNL     1       1.256   3.738   4.588  0.00  0.00    +0.142 C 
ATOM     14  C   UNL     1      -0.123   4.040   4.043  0.00  0.00    +0.203 C 
ATOM     15  O   UNL     1      -0.281   4.932   3.244  0.00  0.00    -0.288 OA
ATOM     16  C   UNL     1      -1.273   3.234   4.496  0.00  0.00    +0.166 C 
ATOM     17  C   UNL     1      -1.099   2.028   5.090  0.00  0.00    +0.101 C 
ATOM     18  C   UNL     1       0.256   1.507   5.314  0.00  0.00    +0.204 C 
ATOM     19  O   UNL     1       0.448   0.529   6.011  0.00  0.00    -0.286 OA
BRANCH  16  20
ATOM     20  O   UNL     1      -2.528   3.708   4.314  0.00  0.00    -0.491 OA
ATOM     21  C   UNL     1      -3.604   2.887   4.771  0.00  0.00    +0.277 C 
ENDBRANCH  16  20
ENDBRANCH  10  11
BRANCH   1  23
ATOM     22  C   UNL     1       0.027   1.477  -0.018  0.00  0.00    +0.277 C 
ATOM     23  O   UNL     1       0.040   0.048  -0.039  0.00  0.00    -0.491 OA
ENDBRANCH   1  23
BRANCH   6  24
ATOM     24  O   UNL     1       0.127  -2.695   0.028  0.00  0.00    -0.488 OA
BRANCH  24  25
ATOM     25  C   UNL     1       0.205  -4.119   0.118  0.00  0.00    +0.227 C 
BRANCH  25  26
ATOM     26  C   UNL     1      -0.483  -4.746  -1.096  0.00  0.00    +0.022 C 
BRANCH  26  27
ATOM     27  C   UNL     1      -0.400  -6.270  -1.000  0.00  0.00    -0.076 C 
BRANCH  27  28
ATOM     28  N   UNL     1      -1.061  -6.872  -2.166  0.00  0.00    +0.380 N 
ATOM     29  C   UNL     1      -0.276  -6.598  -3.397  0.00  0.00    -0.079 C 
ATOM     30  C   UNL     1      -0.743  -7.709  -4.370  0.00  0.00    -0.020 C 
ATOM     31  C   UNL     1      -0.913  -8.933  -3.440  0.00  0.00    -0.020 C 
ATOM     32  C   UNL     1      -1.096  -8.344  -2.029  0.00  0.00    -0.079 C 
ATOM     33  H   UNL     1      -1.997  -6.509  -2.261  0.00  0.00    -0.082 HD
ENDBRANCH  27  28
ENDBRANCH  26  27
ENDBRANCH  25  26
ENDBRANCH  24  25
ENDBRANCH   6  24
TORSDOF 8
