REMARK  Name = CHEMBL379896
REMARK  6 active torsions:
REMARK  status: ('A' for Active; 'I' for Inactive)
REMARK    1  A    between atoms: C_1  and  O_2
REMARK    2  A    between atoms: O_2  and  C_3
REMARK    3  A    between atoms: C_3  and  C_4
REMARK    4  A    between atoms: C_4  and  N_5
REMARK    5  A    between atoms: N_8  and  C_11
REMARK    6  A    between atoms: C_21  and  C_23
REMARK                            x       y       z     vdW  Elec       q    Type
REMARK                         _______ _______ _______ _____ _____    ______ ____
ROOT
ATOM      1  C   UNL     1      -4.255  -4.240   0.197  0.00  0.00    +0.103 A 
ATOM      2  C   UNL     1      -5.106  -3.577   1.077  0.00  0.00    +0.085 A 
ATOM      3  C   UNL     1      -6.054  -4.326   1.766  0.00  0.00    +0.129 A 
ATOM      4  N   UNL     1      -6.114  -5.640   1.561  0.00  0.00    -0.222 NA
ATOM      5  C   UNL     1      -5.291  -6.231   0.720  0.00  0.00    +0.199 A 
ATOM      6  N   UNL     1      -4.383  -5.557   0.044  0.00  0.00    -0.334 N 
ATOM      7  N   UNL     1      -6.926  -3.711   2.655  0.00  0.00    -0.279 N 
ATOM      8  C   UNL     1      -7.933  -4.445   3.255  0.00  0.00    +0.165 A 
ATOM      9  N   UNL     1      -8.155  -5.744   3.175  0.00  0.00    -0.232 NA
ATOM     10  C   UNL     1      -9.158  -6.306   3.804  0.00  0.00    +0.139 A 
ATOM     11  C   UNL     1      -9.966  -5.463   4.553  0.00  0.00    +0.110 A 
ATOM     12  S   UNL     1      -9.161  -3.895   4.265  0.00  0.00    -0.042 S 
ATOM     13  H   UNL     1      -6.828  -2.767   2.856  0.00  0.00    +0.155 HD
ATOM     14  H   UNL     1      -3.796  -6.027  -0.570  0.00  0.00    +0.168 HD
ENDROOT
BRANCH   1  18
ATOM     15  N   UNL     1      -0.810  -2.454  -1.161  0.00  0.00    -0.297 NA
ATOM     16  C   UNL     1      -1.562  -1.892  -0.032  0.00  0.00    +0.103 C 
ATOM     17  C   UNL     1      -3.062  -2.109  -0.263  0.00  0.00    +0.122 C 
ATOM     18  N   UNL     1      -3.294  -3.539  -0.514  0.00  0.00    -0.314 N 
ATOM     19  C   UNL     1      -2.478  -4.207  -1.540  0.00  0.00    +0.122 C 
ATOM     20  C   UNL     1      -1.002  -3.907  -1.259  0.00  0.00    +0.103 C 
BRANCH  15  21
ATOM     21  C   UNL     1       0.617  -2.117  -1.063  0.00  0.00    +0.112 C 
BRANCH  21  22
ATOM     22  C   UNL     1       1.270  -2.259  -2.439  0.00  0.00    +0.174 C 
BRANCH  22  24
ATOM     23  C   UNL     1       1.252  -1.348  -4.656  0.00  0.00    +0.194 C 
ATOM     24  O   UNL     1       0.707  -1.299  -3.336  0.00  0.00    -0.382 OA
ENDBRANCH  22  24
ENDBRANCH  21  22
ENDBRANCH  15  21
ENDBRANCH   1  18
BRANCH  11  25
ATOM     25  C   UNL     1     -11.122  -5.766   5.341  0.00  0.00    +0.108 C 
ATOM     26  N   UNL     1     -12.039  -6.007   5.967  0.00  0.00    -0.190 NA
ENDBRANCH  11  25
TORSDOF 5
