REMARK  Name = CHEMBL244101
REMARK  7 active torsions:
REMARK  status: ('A' for Active; 'I' for Inactive)
REMARK    1  A    between atoms: C_1  and  O_2
REMARK    2  A    between atoms: O_2  and  C_3
REMARK    3  A    between atoms: C_13  and  O_15
REMARK    4  A    between atoms: O_15  and  C_16
REMARK    5  A    between atoms: C_19  and  N_22
REMARK    6  A    between atoms: N_25  and  C_26
REMARK    7  A    between atoms: C_28  and  C_33
REMARK                            x       y       z     vdW  Elec       q    Type
REMARK                         _______ _______ _______ _____ _____    ______ ____
ROOT
ATOM      1  C   UNL     1       3.152  -7.668   5.179  0.00  0.00    +0.130 A 
ATOM      2  C   UNL     1       2.504  -7.705   3.953  0.00  0.00    +0.048 A 
ATOM      3  C   UNL     1       2.161  -8.918   3.389  0.00  0.00    +0.027 A 
ATOM      4  C   UNL     1       2.466 -10.101   4.050  0.00  0.00    +0.035 A 
ATOM      5  C   UNL     1       3.114 -10.063   5.277  0.00  0.00    +0.027 A 
ATOM      6  C   UNL     1       3.461  -8.850   5.837  0.00  0.00    +0.048 A 
ENDROOT
BRANCH   4   7
ATOM      7  N   UNL     1       2.117 -11.332   3.478  0.00  0.00    -0.269 N 
ATOM      8  C   UNL     1       2.165 -11.492   2.141  0.00  0.00    +0.308 C 
ATOM      9  O   UNL     1       2.428 -10.546   1.425  0.00  0.00    -0.252 OA
ATOM     10  N   UNL     1       1.919 -12.701   1.598  0.00  0.00    -0.267 N 
ATOM     11  H   UNL     1       1.843 -12.069   4.046  0.00  0.00    +0.156 HD
ATOM     12  H   UNL     1       1.652 -13.442   2.164  0.00  0.00    +0.156 HD
BRANCH  10  13
ATOM     13  C   UNL     1       2.051 -12.887   0.216  0.00  0.00    +0.071 A 
ATOM     14  C   UNL     1       1.908 -11.810  -0.648  0.00  0.00    +0.038 A 
ATOM     15  C   UNL     1       2.039 -11.997  -2.011  0.00  0.00    +0.057 A 
ATOM     16  C   UNL     1       2.313 -13.255  -2.515  0.00  0.00    +0.015 A 
ATOM     17  C   UNL     1       2.456 -14.331  -1.659  0.00  0.00    +0.041 A 
ATOM     18  C   UNL     1       2.332 -14.150  -0.293  0.00  0.00    +0.145 A 
ATOM     19  F   UNL     1       2.478 -15.200   0.544  0.00  0.00    -0.204 F 
BRANCH  15  20
ATOM     20  C   UNL     1       1.883 -10.828  -2.949  0.00  0.00    +0.417 C 
ATOM     21  F   UNL     1       3.127 -10.221  -3.148  0.00  0.00    -0.166 F 
ATOM     22  F   UNL     1       1.381 -11.277  -4.175  0.00  0.00    -0.166 F 
ATOM     23  F   UNL     1       0.995  -9.900  -2.394  0.00  0.00    -0.166 F 
ENDBRANCH  15  20
ENDBRANCH  10  13
ENDBRANCH   4   7
BRANCH   1  24
ATOM     24  O   UNL     1       3.489  -6.473   5.734  0.00  0.00    -0.438 OA
BRANCH  24  35
ATOM     25  C   UNL     1      -3.491  -3.473   8.359  0.00  0.00    +0.406 C 
ATOM     26  O   UNL     1      -2.727  -2.624   8.771  0.00  0.00    -0.226 OA
ATOM     27  N   UNL     1      -3.017  -4.533   7.673  0.00  0.00    -0.221 N 
ATOM     28  C   UNL     1      -1.659  -4.653   7.440  0.00  0.00    +0.204 A 
ATOM     29  N   UNL     1      -1.093  -5.635   6.783  0.00  0.00    -0.194 NA
ATOM     30  C   UNL     1       0.249  -5.444   6.738  0.00  0.00    +0.183 A 
ATOM     31  C   UNL     1       0.515  -4.247   7.425  0.00  0.00    +0.087 A 
ATOM     32  N   UNL     1      -0.711  -3.764   7.854  0.00  0.00    -0.324 N 
ATOM     33  C   UNL     1       1.823  -3.798   7.539  0.00  0.00    +0.034 A 
ATOM     34  C   UNL     1       2.829  -4.555   6.964  0.00  0.00    +0.070 A 
ATOM     35  C   UNL     1       2.502  -5.731   6.297  0.00  0.00    +0.222 A 
ATOM     36  N   UNL     1       1.250  -6.139   6.201  0.00  0.00    -0.191 NA
ATOM     37  H   UNL     1      -3.628  -5.210   7.344  0.00  0.00    +0.161 HD
ATOM     38  H   UNL     1      -0.866  -2.949   8.356  0.00  0.00    +0.169 HD
BRANCH  25  40
ATOM     39  C   UNL     1      -5.246  -2.208   9.319  0.00  0.00    +0.282 C 
ATOM     40  O   UNL     1      -4.813  -3.356   8.586  0.00  0.00    -0.453 OA
ENDBRANCH  25  40
ENDBRANCH  24  35
ENDBRANCH   1  24
TORSDOF 6
