REMARK  Name = CHEMBL469467
REMARK  6 active torsions:
REMARK  status: ('A' for Active; 'I' for Inactive)
REMARK    1  A    between atoms: C_1  and  C_2
REMARK    2  A    between atoms: C_6  and  N_8
REMARK    3  A    between atoms: N_11  and  C_12
REMARK    4  A    between atoms: C_15  and  C_18
REMARK    5  A    between atoms: C_22  and  C_28
REMARK    6  A    between atoms: C_26  and  N_27
REMARK                            x       y       z     vdW  Elec       q    Type
REMARK                         _______ _______ _______ _____ _____    ______ ____
ROOT
ATOM      1  C   UNL     1      -0.066  -6.218   3.647  0.00  0.00    +0.035 A 
ATOM      2  C   UNL     1      -0.055  -6.910   2.442  0.00  0.00    +0.024 A 
ATOM      3  C   UNL     1      -0.031  -8.289   2.437  0.00  0.00    +0.010 A 
ATOM      4  C   UNL     1      -0.019  -8.989   3.643  0.00  0.00    -0.013 A 
ATOM      5  C   UNL     1      -0.030  -8.292   4.851  0.00  0.00    +0.010 A 
ATOM      6  C   UNL     1      -0.049  -6.914   4.850  0.00  0.00    +0.024 A 
ENDROOT
BRANCH   4   7
ATOM      7  C   UNL     1       0.006 -10.471   3.640  0.00  0.00    +0.040 A 
ATOM      8  C   UNL     1      -1.076 -11.203   3.123  0.00  0.00    +0.125 A 
ATOM      9  N   UNL     1      -1.046 -12.517   3.124  0.00  0.00    -0.235 NA
ATOM     10  C   UNL     1       0.002 -13.189   3.612  0.00  0.00    +0.165 A 
ATOM     11  C   UNL     1       0.272 -14.559   3.725  0.00  0.00    +0.046 A 
ATOM     12  C   UNL     1       1.534 -14.685   4.319  0.00  0.00    +0.145 A 
ATOM     13  N   UNL     1       2.011 -13.488   4.556  0.00  0.00    -0.171 NA
ATOM     14  N   UNL     1       1.085 -12.530   4.129  0.00  0.00    -0.200 N 
ATOM     15  C   UNL     1       1.104 -11.161   4.145  0.00  0.00    +0.129 A 
BRANCH  11  16
ATOM     16  C   UNL     1      -0.613 -15.667   3.298  0.00  0.00    -0.013 A 
ATOM     17  C   UNL     1      -1.953 -15.682   3.685  0.00  0.00    +0.008 A 
ATOM     18  C   UNL     1      -2.772 -16.718   3.284  0.00  0.00    +0.001 A 
ATOM     19  C   UNL     1      -2.267 -17.739   2.500  0.00  0.00    +0.000 A 
ATOM     20  C   UNL     1      -0.938 -17.730   2.114  0.00  0.00    +0.001 A 
ATOM     21  C   UNL     1      -0.111 -16.698   2.503  0.00  0.00    +0.008 A 
ENDBRANCH  11  16
BRANCH  15  22
ATOM     22  N   UNL     1       2.185 -10.480   4.656  0.00  0.00    -0.343 N 
ATOM     23  H   UNL     1       2.187  -9.511   4.666  0.00  0.00    +0.144 HD
ATOM     24  H   UNL     1       2.946 -10.971   5.005  0.00  0.00    +0.144 HD
ENDBRANCH  15  22
ENDBRANCH   4   7
BRANCH   1  28
ATOM     25  N   UNL     1      -0.678  -2.809   2.618  0.00  0.00    -0.269 N 
ATOM     26  C   UNL     1      -0.743  -4.154   2.676  0.00  0.00    +0.308 C 
ATOM     27  O   UNL     1      -1.390  -4.768   1.849  0.00  0.00    -0.252 OA
ATOM     28  N   UNL     1      -0.089  -4.819   3.649  0.00  0.00    -0.269 N 
ATOM     29  H   UNL     1      -0.103  -2.325   3.230  0.00  0.00    +0.156 HD
ATOM     30  H   UNL     1       0.364  -4.327   4.352  0.00  0.00    +0.156 HD
BRANCH  25  36
ATOM     31  C   UNL     1      -1.186   1.026  -0.417  0.00  0.00    +0.044 C 
ATOM     32  C   UNL     1      -1.712  -0.251   0.188  0.00  0.00    -0.049 A 
ATOM     33  C   UNL     1      -2.952  -0.734  -0.189  0.00  0.00    +0.003 A 
ATOM     34  C   UNL     1      -3.439  -1.904   0.363  0.00  0.00    +0.002 A 
ATOM     35  C   UNL     1      -2.687  -2.595   1.294  0.00  0.00    +0.023 A 
ATOM     36  C   UNL     1      -1.442  -2.112   1.675  0.00  0.00    +0.035 A 
ATOM     37  C   UNL     1      -0.954  -0.939   1.114  0.00  0.00    +0.026 A 
ENDBRANCH  25  36
ENDBRANCH   1  28
TORSDOF 5
