REMARK  Name = CHEMBL256556
REMARK  5 active torsions:
REMARK  status: ('A' for Active; 'I' for Inactive)
REMARK    1  A    between atoms: C_3  and  C_15
REMARK    2  A    between atoms: C_4  and  S_7
REMARK    3  A    between atoms: S_7  and  C_8
REMARK    4  A    between atoms: C_8  and  C_9
REMARK    5  A    between atoms: N_17  and  C_18
REMARK                            x       y       z     vdW  Elec       q    Type
REMARK                         _______ _______ _______ _____ _____    ______ ____
ROOT
ATOM      1  C   UNL     1      -0.017   1.380  -0.014  0.00  0.00    +0.020 A 
ATOM      2  C   UNL     1       1.178   2.078  -0.014  0.00  0.00    +0.017 A 
ATOM      3  C   UNL     1       2.373   1.350  -0.020  0.00  0.00    +0.069 A 
ATOM      4  C   UNL     1       2.310  -0.055  -0.025  0.00  0.00    +0.109 A 
ATOM      5  N   UNL     1       1.138  -0.672  -0.025  0.00  0.00    -0.248 NA
ATOM      6  C   UNL     1       0.002  -0.004  -0.019  0.00  0.00    +0.112 A 
ENDROOT
BRANCH   3   7
ATOM      7  C   UNL     1       3.674   2.043  -0.021  0.00  0.00    +0.251 C 
ATOM      8  O   UNL     1       4.705   1.400  -0.025  0.00  0.00    -0.270 OA
ATOM      9  N   UNL     1       3.719   3.390  -0.016  0.00  0.00    -0.281 N 
ATOM     10  H   UNL     1       2.899   3.904  -0.080  0.00  0.00    +0.155 HD
BRANCH   9  11
ATOM     11  C   UNL     1       4.950   4.048   0.081  0.00  0.00    +0.034 A 
ATOM     12  C   UNL     1       5.048   5.240   0.787  0.00  0.00    +0.025 A 
ATOM     13  C   UNL     1       6.265   5.887   0.882  0.00  0.00    +0.022 A 
ATOM     14  C   UNL     1       7.385   5.349   0.273  0.00  0.00    +0.041 A 
ATOM     15  C   UNL     1       7.290   4.162  -0.431  0.00  0.00    +0.022 A 
ATOM     16  C   UNL     1       6.077   3.508  -0.524  0.00  0.00    +0.025 A 
ATOM     17 CL   UNL     1       8.913   6.165   0.394  0.00  0.00    -0.084 Cl
ENDBRANCH   9  11
ENDBRANCH   3   7
BRANCH   4  18
ATOM     18  S   UNL     1       3.798  -0.999  -0.032  0.00  0.00    -0.100 S 
BRANCH  18  19
ATOM     19  C   UNL     1       3.225  -2.720  -0.037  0.00  0.00    +0.111 C 
BRANCH  19  20
ATOM     20  C   UNL     1       4.415  -3.645  -0.043  0.00  0.00    -0.034 A 
ATOM     21  C   UNL     1       4.976  -4.072  -1.237  0.00  0.00    +0.024 A 
ATOM     22  C   UNL     1       6.067  -4.920  -1.203  0.00  0.00    +0.111 A 
ATOM     23  N   UNL     1       6.573  -5.323  -0.054  0.00  0.00    -0.263 NA
ATOM     24  C   UNL     1       6.065  -4.938   1.100  0.00  0.00    +0.111 A 
ATOM     25  C   UNL     1       4.978  -4.085   1.145  0.00  0.00    +0.024 A 
ENDBRANCH  19  20
ENDBRANCH  18  19
ENDBRANCH   4  18
TORSDOF 5
