REMARK  Name = CHEMBL255744
REMARK  6 active torsions:
REMARK  status: ('A' for Active; 'I' for Inactive)
REMARK    1  A    between atoms: C_1  and  C_2
REMARK    2  A    between atoms: C_4  and  C_29
REMARK    3  A    between atoms: C_6  and  N_8
REMARK    4  A    between atoms: N_11  and  C_12
REMARK    5  A    between atoms: C_15  and  C_18
REMARK    6  A    between atoms: C_24  and  N_28
REMARK                            x       y       z     vdW  Elec       q    Type
REMARK                         _______ _______ _______ _____ _____    ______ ____
ROOT
ATOM      1  C   UNL     1       0.117  -2.416   6.095  0.00  0.00    +0.035 A 
ATOM      2  C   UNL     1      -0.043  -1.035   6.090  0.00  0.00    +0.024 A 
ATOM      3  C   UNL     1      -0.037  -0.335   7.277  0.00  0.00    +0.010 A 
ATOM      4  C   UNL     1       0.130  -1.014   8.485  0.00  0.00    -0.017 A 
ATOM      5  C   UNL     1       0.290  -2.400   8.487  0.00  0.00    +0.010 A 
ATOM      6  C   UNL     1       0.278  -3.095   7.298  0.00  0.00    +0.024 A 
ENDROOT
BRANCH   4   7
ATOM      7  C   UNL     1       0.138  -0.265   9.762  0.00  0.00    -0.002 A 
ATOM      8  C   UNL     1      -0.929   0.547  10.124  0.00  0.00    +0.029 A 
ATOM      9  C   UNL     1      -0.905   1.243  11.325  0.00  0.00    +0.114 A 
ATOM     10  N   UNL     1       0.099   1.174  12.164  0.00  0.00    -0.234 NA
ATOM     11  C   UNL     1       1.179   0.417  11.908  0.00  0.00    +0.184 A 
ATOM     12  C   UNL     1       1.231  -0.356  10.658  0.00  0.00    +0.067 A 
ATOM     13  C   UNL     1       2.442  -1.038  10.665  0.00  0.00    +0.121 A 
ATOM     14  N   UNL     1       3.078  -0.725  11.806  0.00  0.00    -0.262 N 
ATOM     15  N   UNL     1       2.303   0.169  12.553  0.00  0.00    -0.152 NA
ATOM     16  H   UNL     1       3.948  -1.063  12.070  0.00  0.00    +0.190 HD
BRANCH  13  17
ATOM     17  N   UNL     1       2.909  -1.887   9.674  0.00  0.00    -0.343 N 
ATOM     18  H   UNL     1       2.434  -1.956   8.831  0.00  0.00    +0.144 HD
ATOM     19  H   UNL     1       3.711  -2.412   9.824  0.00  0.00    +0.144 HD
ENDBRANCH  13  17
ENDBRANCH   4   7
BRANCH   1  23
ATOM     20  N   UNL     1       0.518  -3.199   2.593  0.00  0.00    -0.269 N 
ATOM     21  C   UNL     1       0.616  -2.559   3.776  0.00  0.00    +0.308 C 
ATOM     22  O   UNL     1       1.160  -1.474   3.837  0.00  0.00    -0.252 OA
ATOM     23  N   UNL     1       0.110  -3.123   4.891  0.00  0.00    -0.269 N 
ATOM     24  H   UNL     1       0.020  -4.029   2.531  0.00  0.00    +0.156 HD
ATOM     25  H   UNL     1      -0.259  -4.019   4.856  0.00  0.00    +0.156 HD
BRANCH  20  31
ATOM     26  C   UNL     1       0.534  -2.482  -2.271  0.00  0.00    +0.044 C 
ATOM     27  C   UNL     1       1.166  -2.304  -0.914  0.00  0.00    -0.048 A 
ATOM     28  C   UNL     1       2.357  -1.612  -0.792  0.00  0.00    +0.006 A 
ATOM     29  C   UNL     1       2.939  -1.446   0.452  0.00  0.00    -0.048 A 
ATOM     30  C   UNL     1       2.332  -1.970   1.576  0.00  0.00    +0.026 A 
ATOM     31  C   UNL     1       1.135  -2.665   1.456  0.00  0.00    +0.035 A 
ATOM     32  C   UNL     1       0.551  -2.826   0.207  0.00  0.00    +0.026 A 
ATOM     33  C   UNL     1       4.237  -0.691   0.580  0.00  0.00    +0.044 C 
ENDBRANCH  20  31
ENDBRANCH   1  23
TORSDOF 4
