REMARK  Name = CHEMBL210003
REMARK  5 active torsions:
REMARK  status: ('A' for Active; 'I' for Inactive)
REMARK    1  A    between atoms: C_1  and  C_2
REMARK    2  A    between atoms: C_2  and  C_3
REMARK    3  A    between atoms: C_7  and  N_9
REMARK    4  A    between atoms: N_12  and  C_13
REMARK    5  A    between atoms: C_16  and  C_19
REMARK                            x       y       z     vdW  Elec       q    Type
REMARK                         _______ _______ _______ _____ _____    ______ ____
ROOT
ATOM      1  C   UNL     1       7.084  -2.376  -4.401  0.00  0.00    +0.035 A 
ATOM      2  C   UNL     1       6.355  -2.507  -5.578  0.00  0.00    +0.024 A 
ATOM      3  C   UNL     1       6.966  -2.979  -6.719  0.00  0.00    +0.012 A 
ATOM      4  C   UNL     1       8.316  -3.326  -6.694  0.00  0.00    +0.005 A 
ATOM      5  C   UNL     1       9.046  -3.193  -5.513  0.00  0.00    +0.012 A 
ATOM      6  C   UNL     1       8.432  -2.715  -4.375  0.00  0.00    +0.024 A 
ENDROOT
BRANCH   4   7
ATOM      7  C   UNL     1       8.975  -3.834  -7.920  0.00  0.00    +0.126 A 
ATOM      8  C   UNL     1       9.876  -4.989  -8.011  0.00  0.00    +0.108 A 
ATOM      9  C   UNL     1      10.384  -5.921  -7.093  0.00  0.00    +0.133 A 
ATOM     10  N   UNL     1      11.204  -6.867  -7.542  0.00  0.00    -0.220 NA
ATOM     11  C   UNL     1      11.534  -6.931  -8.818  0.00  0.00    +0.227 A 
ATOM     12  N   UNL     1      11.081  -6.077  -9.712  0.00  0.00    -0.198 NA
ATOM     13  C   UNL     1      10.255  -5.096  -9.358  0.00  0.00    +0.264 A 
ATOM     14  O   UNL     1       9.644  -4.102 -10.024  0.00  0.00    -0.334 OA
ATOM     15  N   UNL     1       8.859  -3.342  -9.127  0.00  0.00    -0.075 NA
ATOM     16  N   UNL     1      10.041  -5.858  -5.757  0.00  0.00    -0.342 N 
ATOM     17  H   UNL     1       9.330  -5.266  -5.466  0.00  0.00    +0.144 HD
ATOM     18  H   UNL     1      10.511  -6.406  -5.109  0.00  0.00    +0.144 HD
ENDBRANCH   4   7
BRANCH   1  22
ATOM     19  N   UNL     1       4.542  -1.645  -1.943  0.00  0.00    -0.269 N 
ATOM     20  C   UNL     1       5.170  -2.190  -3.004  0.00  0.00    +0.308 C 
ATOM     21  O   UNL     1       4.571  -2.947  -3.743  0.00  0.00    -0.252 OA
ATOM     22  N   UNL     1       6.463  -1.896  -3.245  0.00  0.00    -0.269 N 
ATOM     23  H   UNL     1       4.995  -0.983  -1.399  0.00  0.00    +0.156 HD
ATOM     24  H   UNL     1       6.962  -1.352  -2.616  0.00  0.00    +0.156 HD
BRANCH  19  29
ATOM     25  C   UNL     1       1.532  -3.720  -1.552  0.00  0.00    -0.046 A 
ATOM     26  C   UNL     1       0.652  -2.804  -1.005  0.00  0.00    +0.004 A 
ATOM     27  C   UNL     1       1.060  -1.505  -0.769  0.00  0.00    +0.002 A 
ATOM     28  C   UNL     1       2.349  -1.117  -1.079  0.00  0.00    +0.023 A 
ATOM     29  C   UNL     1       3.235  -2.034  -1.628  0.00  0.00    +0.035 A 
ATOM     30  C   UNL     1       2.823  -3.341  -1.859  0.00  0.00    +0.027 A 
BRANCH  25  32
ATOM     31  C   UNL     1       1.355  -5.990  -0.569  0.00  0.00    +0.009 C 
ATOM     32  C   UNL     1       1.082  -5.136  -1.809  0.00  0.00    +0.032 C 
ENDBRANCH  25  32
ENDBRANCH  19  29
ENDBRANCH   1  22
TORSDOF 4
