REMARK  Name = CHEMBL379896
REMARK  6 active torsions:
REMARK  status: ('A' for Active; 'I' for Inactive)
REMARK    1  A    between atoms: C_1  and  O_2
REMARK    2  A    between atoms: O_2  and  C_3
REMARK    3  A    between atoms: C_3  and  C_4
REMARK    4  A    between atoms: C_4  and  N_5
REMARK    5  A    between atoms: C_13  and  N_17
REMARK    6  A    between atoms: C_21  and  C_23
REMARK                            x       y       z     vdW  Elec       q    Type
REMARK                         _______ _______ _______ _____ _____    ______ ____
ROOT
ATOM      1  N   UNL     1      -0.689  -2.524  -0.972  0.00  0.00    -0.297 NA
ATOM      2  C   UNL     1      -1.462  -1.967   0.147  0.00  0.00    +0.103 C 
ATOM      3  C   UNL     1      -2.958  -2.140  -0.135  0.00  0.00    +0.122 C 
ATOM      4  N   UNL     1      -3.218  -3.558  -0.426  0.00  0.00    -0.313 N 
ATOM      5  C   UNL     1      -2.388  -4.224  -1.441  0.00  0.00    +0.122 C 
ATOM      6  C   UNL     1      -0.914  -3.969  -1.108  0.00  0.00    +0.103 C 
ATOM      7  C   UNL     1      -4.219  -4.249   0.239  0.00  0.00    +0.126 A 
ATOM      8  C   UNL     1      -5.072  -3.586   1.117  0.00  0.00    +0.085 A 
ATOM      9  C   UNL     1      -6.060  -4.324   1.759  0.00  0.00    +0.106 A 
ATOM     10  N   UNL     1      -6.155  -5.629   1.513  0.00  0.00    -0.334 N 
ATOM     11  C   UNL     1      -5.329  -6.221   0.675  0.00  0.00    +0.199 A 
ATOM     12  N   UNL     1      -4.383  -5.556   0.043  0.00  0.00    -0.223 NA
ATOM     13  H   UNL     1      -6.842  -6.151   1.957  0.00  0.00    +0.168 HD
ENDROOT
BRANCH   9  14
ATOM     14  N   UNL     1      -6.935  -3.709   2.645  0.00  0.00    -0.280 N 
ATOM     15  C   UNL     1      -6.935  -2.333   2.773  0.00  0.00    +0.165 A 
ATOM     16  N   UNL     1      -6.125  -1.460   2.203  0.00  0.00    -0.232 NA
ATOM     17  C   UNL     1      -6.246  -0.172   2.419  0.00  0.00    +0.139 A 
ATOM     18  C   UNL     1      -7.266   0.216   3.274  0.00  0.00    +0.110 A 
ATOM     19  S   UNL     1      -7.972  -1.372   3.686  0.00  0.00    -0.042 S 
ATOM     20  H   UNL     1      -7.546  -4.245   3.174  0.00  0.00    +0.155 HD
BRANCH  18  21
ATOM     21  C   UNL     1      -7.650   1.527   3.704  0.00  0.00    +0.108 C 
ATOM     22  N   UNL     1      -7.955   2.567   4.045  0.00  0.00    -0.190 NA
ENDBRANCH  18  21
ENDBRANCH   9  14
BRANCH   1  23
ATOM     23  C   UNL     1       0.742  -2.225  -0.823  0.00  0.00    +0.112 C 
BRANCH  23  24
ATOM     24  C   UNL     1       1.434  -2.354  -2.181  0.00  0.00    +0.174 C 
BRANCH  24  26
ATOM     25  C   UNL     1       1.520  -1.381  -4.370  0.00  0.00    +0.194 C 
ATOM     26  O   UNL     1       0.936  -1.349  -3.067  0.00  0.00    -0.382 OA
ENDBRANCH  24  26
ENDBRANCH  23  24
ENDBRANCH   1  23
TORSDOF 5
