REMARK  Name = CHEMBL409538
REMARK  7 active torsions:
REMARK  status: ('A' for Active; 'I' for Inactive)
REMARK    1  A    between atoms: C_1  and  O_2
REMARK    2  A    between atoms: O_2  and  C_3
REMARK    3  A    between atoms: C_6  and  O_15
REMARK    4  A    between atoms: C_12  and  O_13
REMARK    5  A    between atoms: O_13  and  C_14
REMARK    6  A    between atoms: O_15  and  C_16
REMARK    7  A    between atoms: C_25  and  C_26
REMARK                            x       y       z     vdW  Elec       q    Type
REMARK                         _______ _______ _______ _____ _____    ______ ____
ROOT
ATOM      1  C   UNL     1      -5.957   2.244  -0.060  0.00  0.00    +0.129 A 
ATOM      2  C   UNL     1      -7.189   1.584  -0.010  0.00  0.00    +0.047 A 
ATOM      3  C   UNL     1      -8.357   2.283  -0.010  0.00  0.00    +0.013 A 
ATOM      4  C   UNL     1      -8.330   3.683  -0.061  0.00  0.00    -0.006 A 
ATOM      5  C   UNL     1      -7.085   4.357  -0.111  0.00  0.00    -0.014 A 
ATOM      6  C   UNL     1      -5.896   3.609  -0.105  0.00  0.00    +0.054 A 
ATOM      7  C   UNL     1      -7.059   5.762  -0.162  0.00  0.00    +0.008 A 
ATOM      8  C   UNL     1      -8.225   6.468  -0.162  0.00  0.00    +0.001 A 
ATOM      9  C   UNL     1      -9.455   5.825  -0.112  0.00  0.00    +0.014 A 
ATOM     10  C   UNL     1      -9.528   4.441  -0.062  0.00  0.00    +0.045 A 
ENDROOT
BRANCH  10  11
ATOM     11  C   UNL     1     -10.838   3.765  -0.010  0.00  0.00    +0.250 C 
ATOM     12  O   UNL     1     -10.894   2.561   0.147  0.00  0.00    -0.270 OA
ATOM     13  N   UNL     1     -11.972   4.482  -0.137  0.00  0.00    -0.264 N 
ATOM     14  C   UNL     1     -13.210   3.844  -0.087  0.00  0.00    +0.168 A 
ATOM     15  C   UNL     1     -13.424   2.459   0.095  0.00  0.00    +0.088 A 
ATOM     16  C   UNL     1     -14.751   2.237   0.084  0.00  0.00    +0.232 A 
ATOM     17  O   UNL     1     -15.370   3.414  -0.095  0.00  0.00    -0.361 OA
ATOM     18  N   UNL     1     -14.379   4.421  -0.196  0.00  0.00    -0.063 NA
ATOM     19  H   UNL     1     -11.926   5.443  -0.262  0.00  0.00    +0.157 HD
ENDBRANCH  10  11
BRANCH   1  20
ATOM     20  O   UNL     1      -4.807   1.521  -0.059  0.00  0.00    -0.455 OA
BRANCH  20  24
ATOM     21  C   UNL     1      -1.144  -0.520  -0.359  0.00  0.00    +0.162 A 
ATOM     22  C   UNL     1      -2.325   0.152  -0.226  0.00  0.00    +0.063 A 
ATOM     23  C   UNL     1      -3.217   0.209  -1.307  0.00  0.00    +0.044 A 
ATOM     24  C   UNL     1      -4.448   0.895  -1.207  0.00  0.00    +0.139 A 
ATOM     25  C   UNL     1      -5.276   0.908  -2.316  0.00  0.00    +0.064 A 
ATOM     26  C   UNL     1      -4.881   0.258  -3.478  0.00  0.00    +0.086 A 
ATOM     27  N   UNL     1      -3.735  -0.377  -3.560  0.00  0.00    -0.360 N 
ATOM     28  C   UNL     1      -2.886  -0.430  -2.527  0.00  0.00    +0.054 A 
ATOM     29  C   UNL     1      -1.663  -1.114  -2.633  0.00  0.00    +0.075 A 
ATOM     30  C   UNL     1      -0.811  -1.149  -1.567  0.00  0.00    +0.163 A 
ATOM     31  H   UNL     1      -3.498  -0.818  -4.391  0.00  0.00    +0.165 HD
BRANCH  21  33
ATOM     32  C   UNL     1      -0.676   0.085   1.893  0.00  0.00    +0.277 C 
ATOM     33  O   UNL     1      -0.280  -0.575   0.689  0.00  0.00    -0.491 OA
ENDBRANCH  21  33
BRANCH  30  34
ATOM     34  O   UNL     1       0.373  -1.807  -1.676  0.00  0.00    -0.491 OA
ATOM     35  C   UNL     1       0.656  -2.428  -2.932  0.00  0.00    +0.277 C 
ENDBRANCH  30  34
ENDBRANCH  20  24
ENDBRANCH   1  20
TORSDOF 5
