REMARK  Name = CHEMBL518676
REMARK  8 active torsions:
REMARK  status: ('A' for Active; 'I' for Inactive)
REMARK    1  A    between atoms: C_1  and  N_2
REMARK    2  A    between atoms: C_4  and  C_7
REMARK    3  A    between atoms: C_12  and  O_16
REMARK    4  A    between atoms: O_16  and  C_17
REMARK    5  A    between atoms: C_20  and  N_24
REMARK    6  A    between atoms: N_24  and  C_25
REMARK    7  A    between atoms: C_25  and  N_27
REMARK    8  A    between atoms: N_30  and  C_33
REMARK                            x       y       z     vdW  Elec       q    Type
REMARK                         _______ _______ _______ _____ _____    ______ ____
ROOT
ATOM      1  C   UNL     1       0.034  -6.622  -6.708  0.00  0.00    +0.164 A 
ATOM      2  C   UNL     1      -0.386  -7.891  -6.341  0.00  0.00    +0.051 A 
ATOM      3  C   UNL     1      -0.382  -8.916  -7.267  0.00  0.00    +0.027 A 
ATOM      4  C   UNL     1       0.044  -8.676  -8.567  0.00  0.00    +0.036 A 
ATOM      5  C   UNL     1       0.465  -7.405  -8.936  0.00  0.00    +0.065 A 
ATOM      6  C   UNL     1       0.455  -6.378  -8.010  0.00  0.00    +0.167 A 
ATOM      7  F   UNL     1       0.859  -5.140  -8.369  0.00  0.00    -0.202 F 
ENDROOT
BRANCH   4   8
ATOM      8  N   UNL     1       0.049  -9.715  -9.505  0.00  0.00    -0.296 N 
ATOM      9  H   UNL     1       0.817  -9.843 -10.084  0.00  0.00    +0.154 HD
BRANCH   8  10
ATOM     10  C   UNL     1      -1.014 -10.538  -9.605  0.00  0.00    +0.145 C 
ATOM     11  S   UNL     1      -2.323 -10.382  -8.514  0.00  0.00    -0.018 S 
BRANCH  10  12
ATOM     12  N   UNL     1      -1.046 -11.484 -10.565  0.00  0.00    -0.235 N 
ATOM     13  C   UNL     1      -2.187 -12.364 -10.857  0.00  0.00    +0.136 C 
ATOM     14  C   UNL     1      -1.691 -13.237 -12.025  0.00  0.00    +0.134 C 
ATOM     15  N   UNL     1      -0.323 -12.757 -12.268  0.00  0.00    -0.254 N 
ATOM     16  C   UNL     1      -0.044 -11.769 -11.408  0.00  0.00    +0.315 C 
ATOM     17  O   UNL     1       1.022 -11.186 -11.391  0.00  0.00    -0.252 OA
BRANCH  15  18
ATOM     18  C   UNL     1       0.548 -13.250 -13.246  0.00  0.00    +0.038 A 
ATOM     19  C   UNL     1       1.863 -12.808 -13.293  0.00  0.00    +0.023 A 
ATOM     20  C   UNL     1       2.720 -13.296 -14.260  0.00  0.00    +0.002 A 
ATOM     21  C   UNL     1       2.269 -14.224 -15.181  0.00  0.00    +0.000 A 
ATOM     22  C   UNL     1       0.960 -14.666 -15.137  0.00  0.00    +0.002 A 
ATOM     23  C   UNL     1       0.100 -14.186 -14.169  0.00  0.00    +0.023 A 
ENDBRANCH  15  18
ENDBRANCH  10  12
ENDBRANCH   8  10
ENDBRANCH   4   8
BRANCH   1  24
ATOM     24  O   UNL     1       0.029  -5.613  -5.796  0.00  0.00    -0.452 OA
BRANCH  24  30
ATOM     25  C   UNL     1      -1.185  -1.879  -2.930  0.00  0.00    +0.040 A 
ATOM     26  C   UNL     1      -2.154  -1.835  -3.880  0.00  0.00    +0.046 A 
ATOM     27  C   UNL     1      -2.158  -2.779  -4.925  0.00  0.00    +0.082 A 
ATOM     28  C   UNL     1      -1.111  -3.725  -4.888  0.00  0.00    +0.080 A 
ATOM     29  S   UNL     1      -0.187  -3.267  -3.444  0.00  0.00    -0.082 S 
ATOM     30  C   UNL     1      -0.985  -4.712  -5.847  0.00  0.00    +0.146 A 
ATOM     31  C   UNL     1      -1.932  -4.753  -6.870  0.00  0.00    +0.067 A 
ATOM     32  C   UNL     1      -2.943  -3.807  -6.870  0.00  0.00    +0.115 A 
ATOM     33  N   UNL     1      -3.038  -2.883  -5.947  0.00  0.00    -0.254 NA
BRANCH  25  37
ATOM     34  C   UNL     1       0.611   0.229   1.234  0.00  0.00    +0.149 C 
ATOM     35  N   UNL     1      -0.212  -0.071   0.060  0.00  0.00    -0.341 N 
ATOM     36  C   UNL     1      -0.002  -1.079  -0.838  0.00  0.00    +0.113 A 
ATOM     37  C   UNL     1      -0.999  -0.993  -1.761  0.00  0.00    +0.071 A 
ATOM     38  N   UNL     1      -1.787   0.047  -1.417  0.00  0.00    -0.345 N 
ATOM     39  C   UNL     1      -1.322   0.594  -0.329  0.00  0.00    +0.174 A 
ATOM     40  H   UNL     1      -2.576   0.339  -1.900  0.00  0.00    +0.167 HD
ENDBRANCH  25  37
ENDBRANCH  24  30
ENDBRANCH   1  24
TORSDOF 7
