REMARK  Name = CHEMBL200874
REMARK  10 active torsions:
REMARK  status: ('A' for Active; 'I' for Inactive)
REMARK    1  A    between atoms: C_1  and  C_2
REMARK    2  A    between atoms: C_10  and  O_11
REMARK    3  A    between atoms: N_13  and  C_14
REMARK    4  A    between atoms: C_17  and  O_29
REMARK    5  A    between atoms: C_18  and  O_24
REMARK    6  A    between atoms: O_24  and  C_25
REMARK    7  A    between atoms: C_25  and  C_26
REMARK    8  A    between atoms: C_26  and  O_27
REMARK    9  A    between atoms: O_27  and  C_28
REMARK   10  A    between atoms: O_29  and  C_30
REMARK                            x       y       z     vdW  Elec       q    Type
REMARK                         _______ _______ _______ _____ _____    ______ ____
ROOT
ATOM      1  C   UNL     1      -9.206   1.611   4.011  0.00  0.00    +0.054 C 
ATOM      2  C   UNL     1      -7.989   0.749   4.355  0.00  0.00    +0.193 C 
ATOM      3  C   UNL     1      -7.691  -0.263   3.223  0.00  0.00    +0.161 C 
ATOM      4  N   UNL     1      -7.273  -1.461   3.976  0.00  0.00    -0.230 N 
ATOM      5  C   UNL     1      -7.630  -1.289   5.253  0.00  0.00    +0.408 C 
ATOM      6  O   UNL     1      -7.397  -2.098   6.132  0.00  0.00    -0.226 OA
ATOM      7  O   UNL     1      -8.274  -0.124   5.466  0.00  0.00    -0.445 OA
ATOM      8  C   UNL     1      -6.652  -2.526   3.473  0.00  0.00    +0.090 C 
ATOM      9  C   UNL     1      -6.192  -3.540   4.339  0.00  0.00    +0.075 C 
ATOM     10  C   UNL     1      -5.558  -4.634   3.848  0.00  0.00    +0.144 C 
ATOM     11  C   UNL     1      -5.344  -4.768   2.394  0.00  0.00    +0.111 C 
ATOM     12  N   UNL     1      -4.727  -5.830   1.906  0.00  0.00    -0.224 NA
ATOM     13  C   UNL     1      -5.823  -3.714   1.499  0.00  0.00    +0.084 C 
ATOM     14  C   UNL     1      -6.458  -2.636   2.020  0.00  0.00    +0.203 C 
ATOM     15  O   UNL     1      -6.911  -1.655   1.200  0.00  0.00    -0.286 OA
ENDROOT
BRANCH  12  16
ATOM     16  C   UNL     1      -4.379  -6.842   2.723  0.00  0.00    +0.164 A 
ATOM     17  C   UNL     1      -5.245  -8.011   2.900  0.00  0.00    +0.048 A 
ATOM     18  C   UNL     1      -6.465  -8.140   2.237  0.00  0.00    +0.063 A 
ATOM     19  C   UNL     1      -7.232  -9.267   2.447  0.00  0.00    +0.162 A 
ATOM     20  C   UNL     1      -6.794 -10.278   3.319  0.00  0.00    +0.164 A 
ATOM     21  C   UNL     1      -5.602 -10.169   3.976  0.00  0.00    +0.078 A 
ATOM     22  C   UNL     1      -4.801  -9.034   3.781  0.00  0.00    +0.080 A 
ATOM     23  N   UNL     1      -3.626  -8.880   4.399  0.00  0.00    -0.235 NA
ATOM     24  C   UNL     1      -2.889  -7.811   4.204  0.00  0.00    +0.224 A 
ATOM     25  N   UNL     1      -3.227  -6.822   3.400  0.00  0.00    -0.216 NA
BRANCH  19  26
ATOM     26  O   UNL     1      -8.423  -9.399   1.806  0.00  0.00    -0.491 OA
ATOM     27  C   UNL     1      -8.812  -8.337   0.934  0.00  0.00    +0.277 C 
ENDBRANCH  19  26
BRANCH  20  28
ATOM     28  O   UNL     1      -7.567 -11.378   3.510  0.00  0.00    -0.486 OA
BRANCH  28  29
ATOM     29  C   UNL     1      -7.069 -12.373   4.407  0.00  0.00    +0.257 C 
BRANCH  29  30
ATOM     30  C   UNL     1      -8.068 -13.528   4.494  0.00  0.00    +0.200 C 
BRANCH  30  31
ATOM     31  O   UNL     1      -8.158 -14.176   3.224  0.00  0.00    -0.380 OA
ATOM     32  C   UNL     1      -9.070 -15.276   3.196  0.00  0.00    +0.194 C 
ENDBRANCH  30  31
ENDBRANCH  29  30
ENDBRANCH  28  29
ENDBRANCH  20  28
ENDBRANCH  12  16
BRANCH  10  33
ATOM     33  O   UNL     1      -5.121  -5.601   4.690  0.00  0.00    -0.505 OA
ATOM     34  H   UNL     1      -5.307  -5.424   5.622  0.00  0.00    +0.292 HD
ENDBRANCH  10  33
TORSDOF 7
