REMARK  Name = CHEMBL26931
REMARK  7 active torsions:
REMARK  status: ('A' for Active; 'I' for Inactive)
REMARK    1  A    between atoms: C_1  and  N_2
REMARK    2  A    between atoms: C_6  and  C_8
REMARK    3  A    between atoms: C_8  and  O_9
REMARK    4  A    between atoms: O_9  and  C_10
REMARK    5  A    between atoms: C_15  and  O_16
REMARK    6  A    between atoms: O_16  and  C_17
REMARK    7  A    between atoms: N_22  and  C_23
REMARK                            x       y       z     vdW  Elec       q    Type
REMARK                         _______ _______ _______ _____ _____    ______ ____
ROOT
ATOM      1  C   UNL     1       1.464  -4.843   3.838  0.00  0.00    +0.164 A 
ATOM      2  C   UNL     1       1.820  -4.113   4.950  0.00  0.00    +0.078 A 
ATOM      3  C   UNL     1       2.693  -4.672   5.891  0.00  0.00    +0.080 A 
ATOM      4  C   UNL     1       3.197  -5.980   5.684  0.00  0.00    +0.044 A 
ATOM      5  C   UNL     1       2.819  -6.701   4.545  0.00  0.00    +0.062 A 
ATOM      6  C   UNL     1       1.962  -6.138   3.642  0.00  0.00    +0.162 A 
ATOM      7  C   UNL     1       4.077  -6.518   6.653  0.00  0.00    +0.134 A 
ATOM      8  N   UNL     1       4.385  -5.771   7.705  0.00  0.00    -0.220 NA
ATOM      9  C   UNL     1       3.890  -4.553   7.857  0.00  0.00    +0.223 A 
ATOM     10  N   UNL     1       3.071  -4.003   6.992  0.00  0.00    -0.235 NA
ATOM     11  N   UNL     1       4.600  -7.787   6.507  0.00  0.00    -0.297 N 
ATOM     12  H   UNL     1       4.443  -8.286   5.691  0.00  0.00    +0.154 HD
ENDROOT
BRANCH  11  13
ATOM     13  C   UNL     1       5.358  -8.354   7.538  0.00  0.00    +0.068 A 
ATOM     14  C   UNL     1       5.271  -7.845   8.827  0.00  0.00    +0.027 A 
ATOM     15  C   UNL     1       6.019  -8.406   9.843  0.00  0.00    +0.017 A 
ATOM     16  C   UNL     1       6.857  -9.475   9.579  0.00  0.00    +0.021 A 
ATOM     17  C   UNL     1       6.947  -9.986   8.296  0.00  0.00    +0.055 A 
ATOM     18  C   UNL     1       6.196  -9.432   7.276  0.00  0.00    +0.145 A 
ATOM     19  F   UNL     1       6.280  -9.935   6.024  0.00  0.00    -0.204 F 
ATOM     20 BR   UNL     1       7.880 -10.239  10.973  0.00  0.00    -0.050 Br
ENDBRANCH  11  13
BRANCH   6  21
ATOM     21  O   UNL     1       1.591  -6.842   2.539  0.00  0.00    -0.491 OA
ATOM     22  C   UNL     1       2.131  -8.157   2.395  0.00  0.00    +0.277 C 
ENDBRANCH   6  21
BRANCH   1  23
ATOM     23  O   UNL     1       0.617  -4.303   2.923  0.00  0.00    -0.488 OA
BRANCH  23  24
ATOM     24  C   UNL     1       0.144  -2.979   3.179  0.00  0.00    +0.231 C 
BRANCH  24  30
ATOM     25  C   UNL     1      -2.432   0.756   1.340  0.00  0.00    -0.096 C 
ATOM     26  N   UNL     1      -2.102  -0.666   1.177  0.00  0.00    +0.378 N 
ATOM     27  C   UNL     1      -3.335  -1.462   1.218  0.00  0.00    -0.079 C 
ATOM     28  C   UNL     1      -3.005  -2.934   0.967  0.00  0.00    -0.018 C 
ATOM     29  C   UNL     1      -2.041  -3.428   2.050  0.00  0.00    +0.003 C 
ATOM     30  C   UNL     1      -0.790  -2.544   2.048  0.00  0.00    +0.010 C 
ATOM     31  C   UNL     1      -1.203  -1.085   2.259  0.00  0.00    -0.072 C 
ATOM     32  H   UNL     1      -1.644  -0.804   0.288  0.00  0.00    -0.082 HD
ENDBRANCH  24  30
ENDBRANCH  23  24
ENDBRANCH   1  23
TORSDOF 5
