REMARK  Name = CHEMBL116324
REMARK  7 active torsions:
REMARK  status: ('A' for Active; 'I' for Inactive)
REMARK    1  A    between atoms: C_1  and  N_2
REMARK    2  A    between atoms: N_5  and  C_8
REMARK    3  A    between atoms: C_8  and  C_9
REMARK    4  A    between atoms: C_9  and  C_10
REMARK    5  A    between atoms: C_10  and  N_11
REMARK    6  A    between atoms: C_14  and  C_18
REMARK    7  A    between atoms: C_22  and  C_27
REMARK                            x       y       z     vdW  Elec       q    Type
REMARK                         _______ _______ _______ _____ _____    ______ ____
ROOT
ATOM      1  N   UNL     1       0.430  -6.471   3.876  0.00  0.00    -0.315 N 
ATOM      2  C   UNL     1       1.764  -6.691   4.015  0.00  0.00    +0.089 A 
ATOM      3  C   UNL     1       2.279  -7.111   5.190  0.00  0.00    +0.026 A 
ATOM      4  C   UNL     1       1.424  -7.326   6.295  0.00  0.00    -0.008 A 
ATOM      5  C   UNL     1       0.064  -7.099   6.143  0.00  0.00    +0.079 A 
ATOM      6  C   UNL     1      -0.419  -6.659   4.903  0.00  0.00    +0.252 A 
ATOM      7  O   UNL     1      -1.612  -6.450   4.754  0.00  0.00    -0.268 OA
ENDROOT
BRANCH   4   8
ATOM      8  C   UNL     1       1.970  -7.788   7.592  0.00  0.00    +0.019 A 
ATOM      9  C   UNL     1       2.925  -7.009   8.283  0.00  0.00    +0.123 A 
ATOM     10  N   UNL     1       3.404  -7.424   9.431  0.00  0.00    -0.235 NA
ATOM     11  C   UNL     1       3.002  -8.582   9.967  0.00  0.00    +0.163 A 
ATOM     12  C   UNL     1       3.347  -9.242  11.153  0.00  0.00    +0.046 A 
ATOM     13  C   UNL     1       2.606 -10.429  11.197  0.00  0.00    +0.145 A 
ATOM     14  N   UNL     1       1.859 -10.502  10.123  0.00  0.00    -0.173 NA
ATOM     15  N   UNL     1       2.078  -9.370   9.331  0.00  0.00    -0.221 N 
ATOM     16  C   UNL     1       1.552  -8.971   8.139  0.00  0.00    +0.124 A 
BRANCH  12  17
ATOM     17  C   UNL     1       4.315  -8.772  12.171  0.00  0.00    -0.013 A 
ATOM     18  C   UNL     1       5.587  -8.350  11.784  0.00  0.00    +0.008 A 
ATOM     19  C   UNL     1       6.485  -7.913  12.737  0.00  0.00    +0.001 A 
ATOM     20  C   UNL     1       6.125  -7.892  14.073  0.00  0.00    +0.000 A 
ATOM     21  C   UNL     1       4.864  -8.309  14.462  0.00  0.00    +0.001 A 
ATOM     22  C   UNL     1       3.956  -8.743  13.518  0.00  0.00    +0.008 A 
ENDBRANCH  12  17
ENDBRANCH   4   8
BRANCH   1  23
ATOM     23  C   UNL     1      -0.093  -6.015   2.586  0.00  0.00    +0.126 C 
BRANCH  23  24
ATOM     24  C   UNL     1      -0.086  -4.485   2.544  0.00  0.00    +0.037 C 
BRANCH  24  25
ATOM     25  C   UNL     1      -0.632  -4.009   1.196  0.00  0.00    +0.086 C 
BRANCH  25  30
ATOM     26  C   UNL     1      -0.018   1.465   0.010  0.00  0.00    -0.096 C 
ATOM     27  N   UNL     1       0.002  -0.004   0.002  0.00  0.00    +0.379 N 
ATOM     28  C   UNL     1      -1.376  -0.512   0.011  0.00  0.00    -0.064 C 
ATOM     29  C   UNL     1      -1.356  -2.042  -0.017  0.00  0.00    +0.066 C 
ATOM     30  N   UNL     1      -0.624  -2.541   1.156  0.00  0.00    -0.306 NA
ATOM     31  C   UNL     1       0.750  -2.020   1.175  0.00  0.00    +0.066 C 
ATOM     32  C   UNL     1       0.713  -0.490   1.192  0.00  0.00    -0.064 C 
ATOM     33  H   UNL     1       0.475  -0.329  -0.828  0.00  0.00    -0.082 HD
ENDBRANCH  25  30
ENDBRANCH  24  25
ENDBRANCH  23  24
ENDBRANCH   1  23
TORSDOF 6
