REMARK  Name = CHEMBL365815
REMARK  9 active torsions:
REMARK  status: ('A' for Active; 'I' for Inactive)
REMARK    1  A    between atoms: C_1  and  C_2
REMARK    2  A    between atoms: C_2  and  S_3
REMARK    3  A    between atoms: S_3  and  C_6
REMARK    4  A    between atoms: C_9  and  O_30
REMARK    5  A    between atoms: C_10  and  N_12
REMARK    6  A    between atoms: C_16  and  C_18
REMARK    7  A    between atoms: C_22  and  C_24
REMARK    8  A    between atoms: N_28  and  C_29
REMARK    9  A    between atoms: O_30  and  C_31
REMARK                            x       y       z     vdW  Elec       q    Type
REMARK                         _______ _______ _______ _____ _____    ______ ____
ROOT
ATOM      1  N   UNL     1      -1.930  -5.179   2.510  0.00  0.00    -0.266 N 
ATOM      2  C   UNL     1      -1.751  -4.489   3.692  0.00  0.00    +0.292 A 
ATOM      3  N   UNL     1      -1.815  -3.186   3.833  0.00  0.00    -0.203 NA
ATOM      4  C   UNL     1      -1.589  -2.878   5.119  0.00  0.00    +0.163 A 
ATOM      5  C   UNL     1      -1.378  -4.038   5.789  0.00  0.00    +0.157 A 
ATOM      6  O   UNL     1      -1.487  -5.042   4.887  0.00  0.00    -0.424 OA
ATOM      7  H   UNL     1      -1.929  -6.149   2.510  0.00  0.00    +0.157 HD
ENDROOT
BRANCH   1  12
ATOM      8  C   UNL     1      -2.451  -2.412   0.144  0.00  0.00    +0.090 A 
ATOM      9  C   UNL     1      -2.478  -3.094  -1.059  0.00  0.00    +0.030 A 
ATOM     10  C   UNL     1      -2.324  -4.468  -1.083  0.00  0.00    +0.049 A 
ATOM     11  C   UNL     1      -2.142  -5.165   0.100  0.00  0.00    +0.141 A 
ATOM     12  C   UNL     1      -2.114  -4.479   1.312  0.00  0.00    +0.079 A 
ATOM     13  C   UNL     1      -2.264  -3.100   1.328  0.00  0.00    +0.054 A 
BRANCH   8  14
ATOM     14  S   UNL     1      -2.649  -0.661   0.167  0.00  0.00    -0.003 S 
ATOM     15  O   UNL     1      -3.172  -0.372   1.456  0.00  0.00    -0.169 OA
ATOM     16  O   UNL     1      -3.400  -0.366  -1.003  0.00  0.00    -0.169 OA
BRANCH  14  18
ATOM     17  C   UNL     1      -1.017   1.529   0.021  0.00  0.00    +0.028 C 
ATOM     18  C   UNL     1      -0.967  -0.000   0.013  0.00  0.00    +0.168 C 
ENDBRANCH  14  18
ENDBRANCH   8  14
BRANCH  11  19
ATOM     19  O   UNL     1      -1.991  -6.517   0.077  0.00  0.00    -0.493 OA
ATOM     20  C   UNL     1      -2.031  -7.153  -1.202  0.00  0.00    +0.277 C 
ENDBRANCH  11  19
ENDBRANCH   1  12
BRANCH   5  21
ATOM     21  C   UNL     1      -1.089  -4.180   7.231  0.00  0.00    +0.020 A 
ATOM     22  C   UNL     1      -1.018  -3.047   8.046  0.00  0.00    +0.011 A 
ATOM     23  C   UNL     1      -0.748  -3.178   9.393  0.00  0.00    +0.001 A 
ATOM     24  C   UNL     1      -0.547  -4.428   9.945  0.00  0.00    +0.010 A 
ATOM     25  C   UNL     1      -0.616  -5.569   9.143  0.00  0.00    +0.001 A 
ATOM     26  C   UNL     1      -0.894  -5.445   7.783  0.00  0.00    +0.021 A 
BRANCH  25  27
ATOM     27  C   UNL     1      -0.400  -6.907   9.736  0.00  0.00    +0.066 A 
ATOM     28  C   UNL     1      -0.784  -8.101   9.211  0.00  0.00    +0.110 A 
ATOM     29  N   UNL     1      -0.399  -9.064  10.056  0.00  0.00    -0.352 N 
ATOM     30  C   UNL     1       0.206  -8.529  11.082  0.00  0.00    +0.174 A 
ATOM     31  N   UNL     1       0.235  -7.188  10.924  0.00  0.00    -0.335 N 
ATOM     32  C   UNL     1       0.828  -6.215  11.846  0.00  0.00    +0.150 C 
ATOM     33  H   UNL     1      -0.547 -10.014   9.928  0.00  0.00    +0.166 HD
ENDBRANCH  25  27
ENDBRANCH   5  21
TORSDOF 6
