REMARK  Name = CHEMBL179603
REMARK  10 active torsions:
REMARK  status: ('A' for Active; 'I' for Inactive)
REMARK    1  A    between atoms: C_1  and  O_2
REMARK    2  A    between atoms: O_2  and  C_3
REMARK    3  A    between atoms: C_6  and  N_9
REMARK    4  A    between atoms: N_12  and  C_13
REMARK    5  A    between atoms: C_16  and  O_19
REMARK    6  A    between atoms: O_19  and  C_20
REMARK    7  A    between atoms: C_23  and  O_32
REMARK    8  A    between atoms: C_24  and  O_30
REMARK    9  A    between atoms: O_30  and  C_31
REMARK   10  A    between atoms: O_32  and  C_33
REMARK                            x       y       z     vdW  Elec       q    Type
REMARK                         _______ _______ _______ _____ _____    ______ ____
ROOT
ATOM      1  C   UNL     1       3.199  -5.842   5.557  0.00  0.00    +0.035 A 
ATOM      2  C   UNL     1       2.616  -6.604   4.553  0.00  0.00    +0.027 A 
ATOM      3  C   UNL     1       2.681  -7.982   4.607  0.00  0.00    +0.048 A 
ATOM      4  C   UNL     1       3.328  -8.605   5.664  0.00  0.00    +0.131 A 
ATOM      5  C   UNL     1       3.911  -7.845   6.667  0.00  0.00    +0.048 A 
ATOM      6  C   UNL     1       3.852  -6.466   6.612  0.00  0.00    +0.027 A 
ENDROOT
BRANCH   1  10
ATOM      7  N   UNL     1       2.033  -2.500   4.823  0.00  0.00    -0.269 N 
ATOM      8  C   UNL     1       2.053  -3.840   4.969  0.00  0.00    +0.308 C 
ATOM      9  O   UNL     1       1.096  -4.503   4.619  0.00  0.00    -0.252 OA
ATOM     10  N   UNL     1       3.133  -4.443   5.503  0.00  0.00    -0.269 N 
ATOM     11  H   UNL     1       2.824  -1.978   5.031  0.00  0.00    +0.156 HD
ATOM     12  H   UNL     1       3.865  -3.910   5.851  0.00  0.00    +0.156 HD
BRANCH   7  16
ATOM     13  C   UNL     1      -1.425  -0.599   3.476  0.00  0.00    +0.120 A 
ATOM     14  C   UNL     1      -1.522  -1.741   4.258  0.00  0.00    +0.047 A 
ATOM     15  C   UNL     1      -0.376  -2.371   4.704  0.00  0.00    +0.027 A 
ATOM     16  C   UNL     1       0.871  -1.861   4.370  0.00  0.00    +0.035 A 
ATOM     17  C   UNL     1       0.966  -0.719   3.587  0.00  0.00    +0.027 A 
ATOM     18  C   UNL     1      -0.179  -0.093   3.136  0.00  0.00    +0.047 A 
BRANCH  13  20
ATOM     19  C   UNL     1      -3.803  -0.555   3.424  0.00  0.00    +0.277 C 
ATOM     20  O   UNL     1      -2.553   0.020   3.037  0.00  0.00    -0.495 OA
ENDBRANCH  13  20
ENDBRANCH   7  16
ENDBRANCH   1  10
BRANCH   4  21
ATOM     21  O   UNL     1       3.392  -9.963   5.716  0.00  0.00    -0.437 OA
BRANCH  21  22
ATOM     22  C   UNL     1       4.266 -10.590   4.895  0.00  0.00    +0.231 A 
ATOM     23  C   UNL     1       4.308 -12.000   4.822  0.00  0.00    +0.066 A 
ATOM     24  C   UNL     1       3.457 -12.809   5.587  0.00  0.00    +0.064 A 
ATOM     25  C   UNL     1       3.541 -14.168   5.476  0.00  0.00    +0.162 A 
ATOM     26  C   UNL     1       4.468 -14.760   4.606  0.00  0.00    +0.164 A 
ATOM     27  C   UNL     1       5.309 -13.993   3.849  0.00  0.00    +0.078 A 
ATOM     28  C   UNL     1       5.245 -12.597   3.942  0.00  0.00    +0.082 A 
ATOM     29  N   UNL     1       6.048 -11.802   3.220  0.00  0.00    -0.235 NA
ATOM     30  C   UNL     1       5.964 -10.497   3.329  0.00  0.00    +0.225 A 
ATOM     31  N   UNL     1       5.100  -9.897   4.134  0.00  0.00    -0.201 NA
BRANCH  26  32
ATOM     32  O   UNL     1       4.531 -16.114   4.515  0.00  0.00    -0.491 OA
ATOM     33  C   UNL     1       5.495 -16.659   3.612  0.00  0.00    +0.277 C 
ENDBRANCH  26  32
BRANCH  25  34
ATOM     34  O   UNL     1       2.717 -14.955   6.218  0.00  0.00    -0.491 OA
ATOM     35  C   UNL     1       1.795 -14.292   7.086  0.00  0.00    +0.277 C 
ENDBRANCH  25  34
ENDBRANCH  21  22
ENDBRANCH   4  21
TORSDOF 7
