REMARK  Name = CHEMBL220057
REMARK  4 active torsions:
REMARK  status: ('A' for Active; 'I' for Inactive)
REMARK    1  A    between atoms: C_1  and  C_2
REMARK    2  A    between atoms: C_6  and  N_8
REMARK    3  A    between atoms: N_11  and  C_12
REMARK    4  A    between atoms: C_15  and  C_18
REMARK                            x       y       z     vdW  Elec       q    Type
REMARK                         _______ _______ _______ _____ _____    ______ ____
ROOT
ATOM      1  C   UNL     1       0.064  -6.218   3.887  0.00  0.00    +0.035 A 
ATOM      2  C   UNL     1       0.215  -6.885   2.676  0.00  0.00    +0.024 A 
ATOM      3  C   UNL     1       0.223  -8.262   2.643  0.00  0.00    +0.010 A 
ATOM      4  C   UNL     1       0.080  -8.989   3.825  0.00  0.00    -0.017 A 
ATOM      5  C   UNL     1      -0.071  -8.317   5.039  0.00  0.00    +0.010 A 
ATOM      6  C   UNL     1      -0.074  -6.939   5.067  0.00  0.00    +0.024 A 
ENDROOT
BRANCH   4   7
ATOM      7  C   UNL     1       0.088 -10.469   3.792  0.00  0.00    -0.005 A 
ATOM      8  C   UNL     1       1.164 -11.152   3.244  0.00  0.00    +0.009 A 
ATOM      9  C   UNL     1       1.172 -12.538   3.212  0.00  0.00    +0.003 A 
ATOM     10  C   UNL     1       0.117 -13.261   3.722  0.00  0.00    +0.028 A 
ATOM     11  C   UNL     1      -0.978 -12.603   4.280  0.00  0.00    +0.068 A 
ATOM     12  C   UNL     1      -0.995 -11.197   4.323  0.00  0.00    +0.049 A 
ATOM     13  C   UNL     1      -2.253 -10.820   4.963  0.00  0.00    +0.146 A 
ATOM     14  N   UNL     1      -2.891 -11.921   5.263  0.00  0.00    -0.158 NA
ATOM     15  N   UNL     1      -2.147 -13.031   4.852  0.00  0.00    -0.275 N 
ATOM     16  H   UNL     1      -2.412 -13.958   4.964  0.00  0.00    +0.189 HD
ATOM     17  N   UNL     1      -2.694  -9.517   5.212  0.00  0.00    -0.341 N 
ATOM     18  H   UNL     1      -2.212  -8.762   4.839  0.00  0.00    +0.144 HD
ATOM     19  H   UNL     1      -3.483  -9.367   5.756  0.00  0.00    +0.144 HD
ENDBRANCH   4   7
BRANCH   1  23
ATOM     20  N   UNL     1      -0.386  -2.781   2.871  0.00  0.00    -0.269 N 
ATOM     21  C   UNL     1      -0.470  -4.127   2.889  0.00  0.00    +0.308 C 
ATOM     22  O   UNL     1      -1.020  -4.714   1.978  0.00  0.00    -0.252 OA
ATOM     23  N   UNL     1       0.057  -4.821   3.918  0.00  0.00    -0.269 N 
ATOM     24  H   UNL     1       0.116  -2.317   3.559  0.00  0.00    +0.156 HD
ATOM     25  H   UNL     1       0.430  -4.350   4.679  0.00  0.00    +0.156 HD
BRANCH  20  31
ATOM     26  C   UNL     1      -0.479   1.118  -0.122  0.00  0.00    +0.044 C 
ATOM     27  C   UNL     1      -1.091  -0.161   0.390  0.00  0.00    -0.049 A 
ATOM     28  C   UNL     1      -2.284  -0.617  -0.141  0.00  0.00    +0.003 A 
ATOM     29  C   UNL     1      -2.848  -1.790   0.326  0.00  0.00    +0.002 A 
ATOM     30  C   UNL     1      -2.221  -2.510   1.324  0.00  0.00    +0.023 A 
ATOM     31  C   UNL     1      -1.023  -2.055   1.859  0.00  0.00    +0.035 A 
ATOM     32  C   UNL     1      -0.457  -0.879   1.384  0.00  0.00    +0.026 A 
ENDBRANCH  20  31
ENDBRANCH   1  23
TORSDOF 3
