REMARK  Name = CHEMBL246151
REMARK  9 active torsions:
REMARK  status: ('A' for Active; 'I' for Inactive)
REMARK    1  A    between atoms: C_1  and  C_2
REMARK    2  A    between atoms: C_2  and  C_3
REMARK    3  A    between atoms: C_2  and  C_4
REMARK    4  A    between atoms: C_8  and  C_10
REMARK    5  A    between atoms: N_12  and  C_13
REMARK    6  A    between atoms: C_15  and  O_20
REMARK    7  A    between atoms: O_20  and  C_21
REMARK    8  A    between atoms: C_22  and  C_27
REMARK    9  A    between atoms: N_33  and  C_34
REMARK                            x       y       z     vdW  Elec       q    Type
REMARK                         _______ _______ _______ _____ _____    ______ ____
ROOT
ATOM      1  C   UNL     1       0.088  -3.840   6.320  0.00  0.00    +0.056 A 
ATOM      2  C   UNL     1      -1.231  -4.239   6.157  0.00  0.00    +0.071 A 
ATOM      3  C   UNL     1      -1.854  -4.986   7.144  0.00  0.00    +0.132 A 
ATOM      4  C   UNL     1      -1.158  -5.334   8.294  0.00  0.00    +0.048 A 
ATOM      5  C   UNL     1       0.155  -4.936   8.456  0.00  0.00    +0.025 A 
ATOM      6  C   UNL     1       0.782  -4.195   7.471  0.00  0.00    +0.062 A 
ATOM      7 CL   UNL     1       2.434  -3.703   7.675  0.00  0.00    -0.082 Cl
ENDROOT
BRANCH   1  10
ATOM      8  C   UNL     1       0.016  -2.183   4.615  0.00  0.00    +0.248 C 
ATOM      9  O   UNL     1      -1.184  -2.081   4.781  0.00  0.00    -0.270 OA
ATOM     10  N   UNL     1       0.720  -3.086   5.326  0.00  0.00    -0.280 N 
ATOM     11  H   UNL     1       1.665  -3.213   5.148  0.00  0.00    +0.155 HD
BRANCH   8  16
ATOM     12  C   UNL     1       0.624   0.423   1.979  0.00  0.00    -0.044 A 
ATOM     13  C   UNL     1       1.990   0.304   1.793  0.00  0.00    +0.004 A 
ATOM     14  C   UNL     1       2.716  -0.621   2.522  0.00  0.00    +0.001 A 
ATOM     15  C   UNL     1       2.081  -1.432   3.440  0.00  0.00    +0.013 A 
ATOM     16  C   UNL     1       0.703  -1.317   3.633  0.00  0.00    +0.037 A 
ATOM     17  C   UNL     1      -0.022  -0.378   2.898  0.00  0.00    +0.017 A 
BRANCH  12  19
ATOM     18  C   UNL     1       0.382   2.836   1.463  0.00  0.00    +0.012 C 
ATOM     19  C   UNL     1      -0.159   1.433   1.181  0.00  0.00    +0.013 C 
ATOM     20  C   UNL     1      -0.019   1.123  -0.311  0.00  0.00    +0.012 C 
ENDBRANCH  12  19
ENDBRANCH   8  16
ENDBRANCH   1  10
BRANCH   3  21
ATOM     21  O   UNL     1      -3.146  -5.378   6.987  0.00  0.00    -0.437 OA
BRANCH  21  22
ATOM     22  C   UNL     1      -3.402  -6.396   6.129  0.00  0.00    +0.228 A 
ATOM     23  C   UNL     1      -4.705  -6.896   6.012  0.00  0.00    +0.044 A 
ATOM     24  C   UNL     1      -4.948  -7.943   5.123  0.00  0.00    +0.015 A 
ATOM     25  C   UNL     1      -3.884  -8.446   4.391  0.00  0.00    +0.021 A 
ATOM     26  C   UNL     1      -2.626  -7.901   4.561  0.00  0.00    +0.114 A 
ATOM     27  N   UNL     1      -2.422  -6.906   5.404  0.00  0.00    -0.220 NA
BRANCH  23  28
ATOM     28  C   UNL     1      -5.808  -6.321   6.820  0.00  0.00    -0.008 A 
ATOM     29  C   UNL     1      -5.671  -6.149   8.203  0.00  0.00    +0.026 A 
ATOM     30  C   UNL     1      -6.718  -5.612   8.920  0.00  0.00    +0.085 A 
ATOM     31  N   UNL     1      -7.841  -5.260   8.322  0.00  0.00    -0.350 N 
ATOM     32  C   UNL     1      -8.015  -5.404   7.017  0.00  0.00    +0.096 A 
ATOM     33  C   UNL     1      -7.007  -5.933   6.221  0.00  0.00    +0.050 A 
ATOM     34  N   UNL     1      -9.218  -5.018   6.436  0.00  0.00    -0.334 N 
ATOM     35  C   UNL     1      -9.418  -5.175   4.993  0.00  0.00    +0.127 C 
ATOM     36  H   UNL     1      -9.925  -4.645   6.986  0.00  0.00    +0.147 HD
ATOM     37  H   UNL     1      -8.561  -4.885   8.854  0.00  0.00    +0.166 HD
ENDBRANCH  23  28
ENDBRANCH  21  22
ENDBRANCH   3  21
TORSDOF 6
