REMARK  Name = CHEMBL243914
REMARK  7 active torsions:
REMARK  status: ('A' for Active; 'I' for Inactive)
REMARK    1  A    between atoms: C_1  and  O_2
REMARK    2  A    between atoms: O_2  and  C_3
REMARK    3  A    between atoms: C_11  and  O_15
REMARK    4  A    between atoms: O_15  and  C_16
REMARK    5  A    between atoms: C_19  and  N_22
REMARK    6  A    between atoms: N_25  and  C_26
REMARK    7  A    between atoms: C_28  and  C_33
REMARK                            x       y       z     vdW  Elec       q    Type
REMARK                         _______ _______ _______ _____ _____    ______ ____
ROOT
ATOM      1  C   UNL     1       4.041  -6.143  -7.291  0.00  0.00    +0.129 A 
ATOM      2  C   UNL     1       4.345  -4.876  -7.769  0.00  0.00    +0.048 A 
ATOM      3  C   UNL     1       4.928  -4.728  -9.011  0.00  0.00    +0.027 A 
ATOM      4  C   UNL     1       5.212  -5.847  -9.783  0.00  0.00    +0.035 A 
ATOM      5  C   UNL     1       4.909  -7.115  -9.304  0.00  0.00    +0.027 A 
ATOM      6  C   UNL     1       4.329  -7.262  -8.060  0.00  0.00    +0.048 A 
ENDROOT
BRANCH   4   7
ATOM      7  N   UNL     1       5.804  -5.697 -11.044  0.00  0.00    -0.269 N 
ATOM      8  C   UNL     1       6.705  -4.718 -11.254  0.00  0.00    +0.308 C 
ATOM      9  O   UNL     1       6.945  -3.914 -10.373  0.00  0.00    -0.252 OA
ATOM     10  N   UNL     1       7.341  -4.628 -12.439  0.00  0.00    -0.267 N 
ATOM     11  H   UNL     1       5.565  -6.299 -11.767  0.00  0.00    +0.156 HD
ATOM     12  H   UNL     1       7.111  -5.236 -13.159  0.00  0.00    +0.156 HD
BRANCH  10  13
ATOM     13  C   UNL     1       8.333  -3.658 -12.630  0.00  0.00    +0.071 A 
ATOM     14  C   UNL     1       8.319  -2.491 -11.878  0.00  0.00    +0.038 A 
ATOM     15  C   UNL     1       9.299  -1.537 -12.069  0.00  0.00    +0.057 A 
ATOM     16  C   UNL     1      10.294  -1.741 -13.008  0.00  0.00    +0.015 A 
ATOM     17  C   UNL     1      10.312  -2.902 -13.760  0.00  0.00    +0.041 A 
ATOM     18  C   UNL     1       9.337  -3.865 -13.570  0.00  0.00    +0.145 A 
ATOM     19  F   UNL     1       9.357  -5.001 -14.300  0.00  0.00    -0.204 F 
BRANCH  15  20
ATOM     20  C   UNL     1       9.284  -0.270 -11.253  0.00  0.00    +0.417 C 
ATOM     21  F   UNL     1      10.026  -0.460 -10.083  0.00  0.00    -0.166 F 
ATOM     22  F   UNL     1       9.848   0.772 -11.998  0.00  0.00    -0.166 F 
ATOM     23  F   UNL     1       7.965   0.056 -10.921  0.00  0.00    -0.166 F 
ENDBRANCH  15  20
ENDBRANCH  10  13
ENDBRANCH   4   7
BRANCH   1  24
ATOM     24  O   UNL     1       3.467  -6.288  -6.068  0.00  0.00    -0.456 OA
BRANCH  24  33
ATOM     25  C   UNL     1       0.216   0.593  -3.277  0.00  0.00    +0.408 C 
ATOM     26  O   UNL     1       1.060   0.356  -2.435  0.00  0.00    -0.226 OA
ATOM     27  N   UNL     1       0.056  -0.241  -4.323  0.00  0.00    -0.205 N 
ATOM     28  C   UNL     1       0.851  -1.367  -4.439  0.00  0.00    +0.297 A 
ATOM     29  N   UNL     1       1.781  -1.716  -3.590  0.00  0.00    -0.195 NA
ATOM     30  C   UNL     1       2.356  -2.873  -4.023  0.00  0.00    +0.111 A 
ATOM     31  C   UNL     1       3.377  -3.685  -3.528  0.00  0.00    +0.035 A 
ATOM     32  C   UNL     1       3.742  -4.822  -4.214  0.00  0.00    +0.048 A 
ATOM     33  C   UNL     1       3.098  -5.164  -5.399  0.00  0.00    +0.132 A 
ATOM     34  C   UNL     1       2.083  -4.366  -5.899  0.00  0.00    +0.094 A 
ATOM     35  C   UNL     1       1.707  -3.220  -5.218  0.00  0.00    +0.160 A 
ATOM     36  O   UNL     1       0.776  -2.263  -5.438  0.00  0.00    -0.424 OA
ATOM     37  H   UNL     1      -0.618  -0.053  -4.995  0.00  0.00    +0.163 HD
BRANCH  25  39
ATOM     38  C   UNL     1      -0.333   2.528  -2.030  0.00  0.00    +0.282 C 
ATOM     39  O   UNL     1      -0.558   1.688  -3.164  0.00  0.00    -0.453 OA
ENDBRANCH  25  39
ENDBRANCH  24  33
ENDBRANCH   1  24
TORSDOF 6
