REMARK  Name = CHEMBL389333
REMARK  9 active torsions:
REMARK  status: ('A' for Active; 'I' for Inactive)
REMARK    1  A    between atoms: C_1  and  N_2
REMARK    2  A    between atoms: N_5  and  C_8
REMARK    3  A    between atoms: C_8  and  C_9
REMARK    4  A    between atoms: C_9  and  N_11
REMARK    5  A    between atoms: C_17  and  O_22
REMARK    6  A    between atoms: O_22  and  C_23
REMARK    7  A    between atoms: C_26  and  N_29
REMARK    8  A    between atoms: N_32  and  C_33
REMARK    9  A    between atoms: C_35  and  C_40
REMARK                            x       y       z     vdW  Elec       q    Type
REMARK                         _______ _______ _______ _____ _____    ______ ____
ROOT
ATOM      1  O   UNL     1       2.864  -9.279   8.339  0.00  0.00    -0.456 OA
ENDROOT
BRANCH   1   8
ATOM      2  N   UNL     1       0.050  -5.667   2.837  0.00  0.00    -0.146 NA
ATOM      3  C   UNL     1       0.607  -6.106   3.963  0.00  0.00    +0.198 A 
ATOM      4  N   UNL     1       0.832  -7.410   4.272  0.00  0.00    -0.326 N 
ATOM      5  H   UNL     1       0.614  -8.173   3.714  0.00  0.00    +0.169 HD
ATOM      6  C   UNL     1       1.428  -7.465   5.528  0.00  0.00    +0.069 A 
ATOM      7  C   UNL     1       1.866  -8.514   6.323  0.00  0.00    +0.074 A 
ATOM      8  C   UNL     1       2.434  -8.252   7.559  0.00  0.00    +0.131 A 
ATOM      9  C   UNL     1       2.565  -6.942   8.003  0.00  0.00    +0.048 A 
ATOM     10  C   UNL     1       2.131  -5.894   7.217  0.00  0.00    +0.031 A 
ATOM     11  C   UNL     1       1.561  -6.149   5.978  0.00  0.00    +0.066 A 
ATOM     12  N   UNL     1       1.047  -5.322   4.981  0.00  0.00    -0.326 N 
ATOM     13  H   UNL     1       1.008  -4.353   5.010  0.00  0.00    +0.169 HD
BRANCH   2  14
ATOM     14  C   UNL     1      -0.019  -4.361   2.596  0.00  0.00    +0.253 C 
ATOM     15  O   UNL     1       0.341  -3.566   3.442  0.00  0.00    -0.272 OA
BRANCH  14  16
ATOM     16  C   UNL     1      -0.545  -3.867   1.272  0.00  0.00    +0.182 C 
BRANCH  16  21
ATOM     17  C   UNL     1       0.138   1.616   0.170  0.00  0.00    -0.096 C 
ATOM     18  N   UNL     1       0.141   0.148   0.140  0.00  0.00    +0.379 N 
ATOM     19  C   UNL     1      -1.242  -0.345   0.134  0.00  0.00    -0.064 C 
ATOM     20  C   UNL     1      -1.240  -1.874   0.085  0.00  0.00    +0.066 C 
ATOM     21  N   UNL     1      -0.520  -2.398   1.254  0.00  0.00    -0.298 NA
ATOM     22  C   UNL     1       0.860  -1.894   1.287  0.00  0.00    +0.066 C 
ATOM     23  C   UNL     1       0.840  -0.364   1.327  0.00  0.00    -0.064 C 
ATOM     24  H   UNL     1       0.615  -0.171  -0.692  0.00  0.00    -0.082 HD
ENDBRANCH  16  21
ENDBRANCH  14  16
ENDBRANCH   2  14
ENDBRANCH   1   8
BRANCH   1  25
ATOM     25  C   UNL     1       4.026  -9.896   7.998  0.00  0.00    +0.129 A 
ATOM     26  C   UNL     1       4.552 -10.885   8.818  0.00  0.00    +0.048 A 
ATOM     27  C   UNL     1       5.733 -11.512   8.472  0.00  0.00    +0.027 A 
ATOM     28  C   UNL     1       6.394 -11.153   7.305  0.00  0.00    +0.035 A 
ATOM     29  C   UNL     1       5.867 -10.164   6.485  0.00  0.00    +0.027 A 
ATOM     30  C   UNL     1       4.683  -9.541   6.829  0.00  0.00    +0.048 A 
BRANCH  28  31
ATOM     31  N   UNL     1       7.592 -11.789   6.954  0.00  0.00    -0.269 N 
ATOM     32  C   UNL     1       7.773 -13.092   7.243  0.00  0.00    +0.308 C 
ATOM     33  O   UNL     1       6.862 -13.742   7.718  0.00  0.00    -0.252 OA
ATOM     34  N   UNL     1       8.965 -13.676   7.007  0.00  0.00    -0.267 N 
ATOM     35  H   UNL     1       8.292 -11.290   6.503  0.00  0.00    +0.156 HD
ATOM     36  H   UNL     1       9.709 -13.145   6.682  0.00  0.00    +0.156 HD
BRANCH  34  37
ATOM     37  C   UNL     1       9.129 -15.049   7.229  0.00  0.00    +0.071 A 
ATOM     38  C   UNL     1       8.320 -15.707   8.146  0.00  0.00    +0.038 A 
ATOM     39  C   UNL     1       8.484 -17.061   8.364  0.00  0.00    +0.057 A 
ATOM     40  C   UNL     1       9.452 -17.763   7.670  0.00  0.00    +0.015 A 
ATOM     41  C   UNL     1      10.259 -17.113   6.755  0.00  0.00    +0.041 A 
ATOM     42  C   UNL     1      10.097 -15.758   6.528  0.00  0.00    +0.145 A 
ATOM     43  F   UNL     1      10.882 -15.124   5.630  0.00  0.00    -0.204 F 
BRANCH  39  44
ATOM     44  C   UNL     1       7.606 -17.774   9.361  0.00  0.00    +0.417 C 
ATOM     45  F   UNL     1       6.462 -18.254   8.715  0.00  0.00    -0.166 F 
ATOM     46  F   UNL     1       8.311 -18.846   9.919  0.00  0.00    -0.166 F 
ATOM     47  F   UNL     1       7.232 -16.884  10.373  0.00  0.00    -0.166 F 
ENDBRANCH  39  44
ENDBRANCH  34  37
ENDBRANCH  28  31
ENDBRANCH   1  25
TORSDOF 8
