REMARK  Name = CHEMBL585205
REMARK  9 active torsions:
REMARK  status: ('A' for Active; 'I' for Inactive)
REMARK    1  A    between atoms: C_1  and  C_2
REMARK    2  A    between atoms: C_2  and  N_3
REMARK    3  A    between atoms: C_5  and  C_8
REMARK    4  A    between atoms: C_13  and  O_17
REMARK    5  A    between atoms: O_17  and  C_18
REMARK    6  A    between atoms: C_21  and  N_25
REMARK    7  A    between atoms: C_26  and  C_28
REMARK    8  A    between atoms: C_28  and  C_29
REMARK    9  A    between atoms: N_31  and  C_32
REMARK                            x       y       z     vdW  Elec       q    Type
REMARK                         _______ _______ _______ _____ _____    ______ ____
ROOT
ATOM      1  C   UNL     1       9.662  -2.583   3.263  0.00  0.00    +0.164 A 
ATOM      2  C   UNL     1       9.897  -3.260   4.450  0.00  0.00    +0.051 A 
ATOM      3  C   UNL     1      11.187  -3.592   4.813  0.00  0.00    +0.027 A 
ATOM      4  C   UNL     1      12.251  -3.247   3.990  0.00  0.00    +0.036 A 
ATOM      5  C   UNL     1      12.018  -2.569   2.801  0.00  0.00    +0.065 A 
ATOM      6  C   UNL     1      10.725  -2.243   2.435  0.00  0.00    +0.167 A 
ATOM      7  F   UNL     1      10.496  -1.588   1.276  0.00  0.00    -0.202 F 
ENDROOT
BRANCH   4   8
ATOM      8  N   UNL     1      13.560  -3.582   4.360  0.00  0.00    -0.285 N 
ATOM      9  C   UNL     1      14.467  -3.898   3.414  0.00  0.00    +0.226 C 
ATOM     10  O   UNL     1      14.129  -3.981   2.252  0.00  0.00    -0.275 OA
ATOM     11  H   UNL     1      13.814  -3.588   5.296  0.00  0.00    +0.155 HD
BRANCH   9  12
ATOM     12  C   UNL     1      15.902  -4.148   3.800  0.00  0.00    +0.191 C 
BRANCH  12  13
ATOM     13  C   UNL     1      16.704  -4.479   2.568  0.00  0.00    +0.222 C 
ATOM     14  O   UNL     1      16.163  -4.510   1.483  0.00  0.00    -0.275 OA
ATOM     15  N   UNL     1      18.022  -4.742   2.672  0.00  0.00    -0.312 N 
ATOM     16  H   UNL     1      18.454  -4.718   3.540  0.00  0.00    +0.149 HD
BRANCH  15  17
ATOM     17  C   UNL     1      18.801  -5.064   1.474  0.00  0.00    +0.073 C 
ATOM     18  C   UNL     1      18.676  -6.559   1.171  0.00  0.00    +0.022 C 
ATOM     19  C   UNL     1      19.490  -6.896  -0.080  0.00  0.00    +0.002 C 
ATOM     20  C   UNL     1      20.960  -6.544   0.158  0.00  0.00    +0.000 C 
ATOM     21  C   UNL     1      21.085  -5.050   0.461  0.00  0.00    +0.002 C 
ATOM     22  C   UNL     1      20.271  -4.713   1.712  0.00  0.00    +0.022 C 
ENDBRANCH  15  17
ENDBRANCH  12  13
ENDBRANCH   9  12
ENDBRANCH   4   8
BRANCH   1  23
ATOM     23  O   UNL     1       8.391  -2.257   2.905  0.00  0.00    -0.452 OA
BRANCH  23  29
ATOM     24  C   UNL     1       3.829  -2.284   1.228  0.00  0.00    +0.040 A 
ATOM     25  C   UNL     1       4.357  -3.387   0.635  0.00  0.00    +0.046 A 
ATOM     26  C   UNL     1       5.699  -3.739   0.873  0.00  0.00    +0.082 A 
ATOM     27  C   UNL     1       6.404  -2.878   1.742  0.00  0.00    +0.080 A 
ATOM     28  S   UNL     1       5.202  -1.646   2.173  0.00  0.00    -0.082 S 
ATOM     29  C   UNL     1       7.729  -3.096   2.068  0.00  0.00    +0.146 A 
ATOM     30  C   UNL     1       8.365  -4.204   1.511  0.00  0.00    +0.067 A 
ATOM     31  C   UNL     1       7.638  -5.023   0.664  0.00  0.00    +0.115 A 
ATOM     32  N   UNL     1       6.383  -4.793   0.372  0.00  0.00    -0.254 NA
BRANCH  24  35
ATOM     33  N   UNL     1       0.676  -0.496   1.345  0.00  0.00    -0.338 N 
ATOM     34  C   UNL     1       1.981  -0.626   1.727  0.00  0.00    +0.113 A 
ATOM     35  C   UNL     1       2.458  -1.743   1.113  0.00  0.00    +0.071 A 
ATOM     36  N   UNL     1       1.453  -2.268   0.380  0.00  0.00    -0.345 N 
ATOM     37  C   UNL     1       0.389  -1.529   0.521  0.00  0.00    +0.174 A 
ATOM     38  H   UNL     1       1.513  -3.069  -0.164  0.00  0.00    +0.167 HD
BRANCH  33  40
ATOM     39  C   UNL     1      -0.972   0.139   3.037  0.00  0.00    +0.027 C 
ATOM     40  C   UNL     1      -0.247   0.564   1.759  0.00  0.00    +0.119 C 
ENDBRANCH  33  40
ENDBRANCH  24  35
ENDBRANCH  23  29
ENDBRANCH   1  23
TORSDOF 8
