REMARK  Name = CHEMBL376951
REMARK  4 active torsions:
REMARK  status: ('A' for Active; 'I' for Inactive)
REMARK    1  A    between atoms: C_1  and  C_2
REMARK    2  A    between atoms: C_6  and  N_8
REMARK    3  A    between atoms: N_11  and  C_12
REMARK    4  A    between atoms: C_15  and  C_18
REMARK                            x       y       z     vdW  Elec       q    Type
REMARK                         _______ _______ _______ _____ _____    ______ ____
ROOT
ATOM      1  C   UNL     1       0.774  -6.280   4.952  0.00  0.00    +0.035 A 
ATOM      2  C   UNL     1       1.199  -6.895   3.780  0.00  0.00    +0.024 A 
ATOM      3  C   UNL     1       1.151  -8.268   3.664  0.00  0.00    +0.012 A 
ATOM      4  C   UNL     1       0.676  -9.040   4.724  0.00  0.00    +0.002 A 
ATOM      5  C   UNL     1       0.250  -8.420   5.899  0.00  0.00    +0.012 A 
ATOM      6  C   UNL     1       0.305  -7.048   6.012  0.00  0.00    +0.024 A 
ENDROOT
BRANCH   4   7
ATOM      7  C   UNL     1       0.622 -10.516   4.603  0.00  0.00    +0.093 A 
ATOM      8  C   UNL     1      -0.580 -11.241   4.978  0.00  0.00    +0.075 A 
ATOM      9  C   UNL     1      -1.829 -10.800   5.482  0.00  0.00    +0.130 A 
ATOM     10  N   UNL     1      -2.768 -11.699   5.743  0.00  0.00    -0.220 NA
ATOM     11  C   UNL     1      -2.576 -12.991   5.548  0.00  0.00    +0.224 A 
ATOM     12  N   UNL     1      -1.435 -13.460   5.081  0.00  0.00    -0.227 NA
ATOM     13  C   UNL     1      -0.446 -12.636   4.795  0.00  0.00    +0.133 A 
ATOM     14  S   UNL     1       1.203 -12.791   4.169  0.00  0.00    +0.032 S 
ATOM     15  N   UNL     1       1.654 -11.179   4.152  0.00  0.00    -0.208 NA
ATOM     16  N   UNL     1      -2.064  -9.456   5.699  0.00  0.00    -0.343 N 
ATOM     17  H   UNL     1      -1.625  -8.792   5.146  0.00  0.00    +0.144 HD
ATOM     18  H   UNL     1      -2.669  -9.177   6.404  0.00  0.00    +0.144 HD
ENDBRANCH   4   7
BRANCH   1  22
ATOM     19  N   UNL     1       0.752  -2.777   4.071  0.00  0.00    -0.269 N 
ATOM     20  C   UNL     1       0.602  -4.114   3.986  0.00  0.00    +0.308 C 
ATOM     21  O   UNL     1       0.268  -4.622   2.933  0.00  0.00    -0.252 OA
ATOM     22  N   UNL     1       0.823  -4.888   5.067  0.00  0.00    -0.269 N 
ATOM     23  H   UNL     1       1.092  -2.379   4.888  0.00  0.00    +0.156 HD
ATOM     24  H   UNL     1       1.016  -4.478   5.925  0.00  0.00    +0.156 HD
BRANCH  19  30
ATOM     25  C   UNL     1       1.595   1.251   1.381  0.00  0.00    +0.044 C 
ATOM     26  C   UNL     1       0.810  -0.006   1.655  0.00  0.00    -0.049 A 
ATOM     27  C   UNL     1      -0.241  -0.358   0.828  0.00  0.00    +0.003 A 
ATOM     28  C   UNL     1      -0.964  -1.510   1.076  0.00  0.00    +0.002 A 
ATOM     29  C   UNL     1      -0.637  -2.315   2.151  0.00  0.00    +0.023 A 
ATOM     30  C   UNL     1       0.419  -1.965   2.982  0.00  0.00    +0.035 A 
ATOM     31  C   UNL     1       1.146  -0.809   2.728  0.00  0.00    +0.026 A 
ENDBRANCH  19  30
ENDBRANCH   1  22
TORSDOF 3
