REMARK  Name = CHEMBL376307
REMARK  3 active torsions:
REMARK  status: ('A' for Active; 'I' for Inactive)
REMARK    1  A    between atoms: C_3  and  C_12
REMARK    2  A    between atoms: C_15  and  N_18
REMARK    3  A    between atoms: N_21  and  C_22
REMARK                            x       y       z     vdW  Elec       q    Type
REMARK                         _______ _______ _______ _____ _____    ______ ____
ROOT
ATOM      1  C   UNL     1       3.966   1.722   0.391  0.00  0.00    -0.017 A 
ATOM      2  C   UNL     1       4.898   1.633   1.425  0.00  0.00    +0.010 A 
ATOM      3  C   UNL     1       5.981   2.485   1.450  0.00  0.00    +0.024 A 
ATOM      4  C   UNL     1       6.144   3.433   0.447  0.00  0.00    +0.035 A 
ATOM      5  C   UNL     1       5.217   3.525  -0.584  0.00  0.00    +0.024 A 
ATOM      6  C   UNL     1       4.136   2.671  -0.618  0.00  0.00    +0.010 A 
ENDROOT
BRANCH   1   9
ATOM      7  C   UNL     1       1.494  -0.869  -0.766  0.00  0.00    +0.003 A 
ATOM      8  C   UNL     1       2.583  -0.012  -0.737  0.00  0.00    +0.009 A 
ATOM      9  C   UNL     1       2.801   0.807   0.361  0.00  0.00    -0.005 A 
ATOM     10  C   UNL     1       1.905   0.762   1.447  0.00  0.00    +0.049 A 
ATOM     11  C   UNL     1       0.804  -0.112   1.405  0.00  0.00    +0.068 A 
ATOM     12  C   UNL     1       0.611  -0.923   0.289  0.00  0.00    +0.028 A 
ATOM     13  N   UNL     1       0.119   0.058   2.581  0.00  0.00    -0.275 N 
ATOM     14  H   UNL     1      -0.689  -0.415   2.834  0.00  0.00    +0.189 HD
ATOM     15  N   UNL     1       0.771   1.021   3.357  0.00  0.00    -0.158 NA
ATOM     16  C   UNL     1       1.828   1.462   2.727  0.00  0.00    +0.146 A 
ATOM     17  N   UNL     1       2.724   2.429   3.194  0.00  0.00    -0.341 N 
ATOM     18  H   UNL     1       3.421   2.766   2.610  0.00  0.00    +0.144 HD
ATOM     19  H   UNL     1       2.648   2.762   4.102  0.00  0.00    +0.144 HD
ENDBRANCH   1   9
BRANCH   4  20
ATOM     20  N   UNL     1       7.244   4.297   0.476  0.00  0.00    -0.269 N 
ATOM     21  C   UNL     1       8.434   3.858   0.931  0.00  0.00    +0.308 C 
ATOM     22  O   UNL     1       8.533   2.737   1.392  0.00  0.00    -0.252 OA
ATOM     23  N   UNL     1       9.515   4.660   0.874  0.00  0.00    -0.269 N 
ATOM     24  H   UNL     1       7.150   5.212   0.168  0.00  0.00    +0.156 HD
ATOM     25  H   UNL     1       9.423   5.576   0.568  0.00  0.00    +0.156 HD
BRANCH  23  26
ATOM     26  C   UNL     1      10.777   4.170   1.259  0.00  0.00    +0.042 A 
ATOM     27  C   UNL     1      11.937   4.712   0.728  0.00  0.00    +0.031 A 
ATOM     28  C   UNL     1      13.134   4.215   1.122  0.00  0.00    +0.047 A 
ATOM     29  S   UNL     1      12.649   2.943   2.276  0.00  0.00    -0.103 S 
ATOM     30  C   UNL     1      10.880   3.160   2.163  0.00  0.00    +0.068 A 
ENDBRANCH  23  26
ENDBRANCH   4  20
TORSDOF 3
