REMARK  Name = CHEMBL366452
REMARK  6 active torsions:
REMARK  status: ('A' for Active; 'I' for Inactive)
REMARK    1  A    between atoms: C_1  and  S_2
REMARK    2  A    between atoms: S_2  and  N_5
REMARK    3  A    between atoms: N_8  and  C_11
REMARK    4  A    between atoms: C_11  and  C_12
REMARK    5  A    between atoms: C_15  and  C_18
REMARK    6  A    between atoms: C_26  and  C_27
REMARK                            x       y       z     vdW  Elec       q    Type
REMARK                         _______ _______ _______ _____ _____    ______ ____
ROOT
ATOM      1  C   UNL     1       4.265   0.114  -4.892  0.00  0.00    -0.033 A 
ATOM      2  C   UNL     1       5.347   0.665  -4.229  0.00  0.00    +0.005 A 
ATOM      3  C   UNL     1       6.613   0.152  -4.424  0.00  0.00    +0.009 A 
ATOM      4  C   UNL     1       6.800  -0.924  -5.291  0.00  0.00    -0.018 A 
ATOM      5  C   UNL     1       5.705  -1.475  -5.956  0.00  0.00    +0.009 A 
ATOM      6  C   UNL     1       4.444  -0.957  -5.749  0.00  0.00    +0.005 A 
ENDROOT
BRANCH   4   7
ATOM      7  C   UNL     1       8.157  -1.480  -5.505  0.00  0.00    -0.013 A 
ATOM      8  C   UNL     1       9.164  -0.694  -6.115  0.00  0.00    +0.026 A 
ATOM      9  C   UNL     1      10.395  -1.203  -6.307  0.00  0.00    +0.094 A 
ATOM     10  N   UNL     1      10.695  -2.478  -5.920  0.00  0.00    -0.301 N 
ATOM     11  C   UNL     1       9.749  -3.273  -5.326  0.00  0.00    +0.116 A 
ATOM     12  C   UNL     1       8.455  -2.770  -5.105  0.00  0.00    +0.053 A 
ATOM     13  N   UNL     1      10.303  -4.450  -5.056  0.00  0.00    -0.345 N 
ATOM     14  C   UNL     1      11.572  -4.445  -5.455  0.00  0.00    +0.111 A 
ATOM     15  C   UNL     1      11.850  -3.224  -6.001  0.00  0.00    +0.071 A 
ATOM     16  H   UNL     1       9.852  -5.198  -4.634  0.00  0.00    +0.167 HD
BRANCH  15  17
ATOM     17  C   UNL     1      13.141  -2.787  -6.569  0.00  0.00    +0.000 A 
ATOM     18  C   UNL     1      13.445  -1.427  -6.657  0.00  0.00    +0.010 A 
ATOM     19  C   UNL     1      14.653  -1.027  -7.189  0.00  0.00    +0.001 A 
ATOM     20  C   UNL     1      15.563  -1.969  -7.635  0.00  0.00    +0.000 A 
ATOM     21  C   UNL     1      15.268  -3.318  -7.551  0.00  0.00    +0.001 A 
ATOM     22  C   UNL     1      14.067  -3.733  -7.016  0.00  0.00    +0.010 A 
ENDBRANCH  15  17
ENDBRANCH   4   7
BRANCH   1  23
ATOM     23  C   UNL     1       2.885   0.679  -4.675  0.00  0.00    +0.119 C 
BRANCH  23  27
ATOM     24  N   UNL     1       0.907  -0.407  -1.136  0.00  0.00    -0.179 NA
ATOM     25  C   UNL     1       0.150  -0.536  -2.391  0.00  0.00    +0.124 C 
ATOM     26  C   UNL     1       0.821   0.339  -3.455  0.00  0.00    +0.102 C 
ATOM     27  N   UNL     1       2.244  -0.014  -3.549  0.00  0.00    -0.296 NA
ATOM     28  C   UNL     1       2.946   0.266  -2.290  0.00  0.00    +0.102 C 
ATOM     29  C   UNL     1       2.363  -0.606  -1.178  0.00  0.00    +0.124 C 
BRANCH  24  31
ATOM     30  C   UNL     1       0.147   1.770   0.367  0.00  0.00    +0.215 C 
ATOM     31  S   UNL     1       0.140  -0.042   0.285  0.00  0.00    +0.029 S 
ATOM     32  O   UNL     1       0.978  -0.581   1.298  0.00  0.00    -0.158 OA
ATOM     33  O   UNL     1      -1.188  -0.519   0.114  0.00  0.00    -0.158 OA
ENDBRANCH  24  31
ENDBRANCH  23  27
ENDBRANCH   1  23
TORSDOF 5
