REMARK  Name = CHEMBL119276
REMARK  6 active torsions:
REMARK  status: ('A' for Active; 'I' for Inactive)
REMARK    1  A    between atoms: C_1  and  C_2
REMARK    2  A    between atoms: N_7  and  C_10
REMARK    3  A    between atoms: C_10  and  C_11
REMARK    4  A    between atoms: C_11  and  O_12
REMARK    5  A    between atoms: O_12  and  C_13
REMARK    6  A    between atoms: C_20  and  C_23
REMARK                            x       y       z     vdW  Elec       q    Type
REMARK                         _______ _______ _______ _____ _____    ______ ____
ROOT
ATOM      1  C   UNL     1      -3.678  -6.186   1.465  0.00  0.00    +0.121 A 
ATOM      2  C   UNL     1      -4.890  -6.655   0.965  0.00  0.00    +0.047 A 
ATOM      3  C   UNL     1      -5.048  -7.984   0.640  0.00  0.00    +0.030 A 
ATOM      4  C   UNL     1      -3.992  -8.873   0.810  0.00  0.00    +0.047 A 
ATOM      5  C   UNL     1      -2.766  -8.402   1.316  0.00  0.00    +0.004 A 
ATOM      6  C   UNL     1      -2.615  -7.049   1.637  0.00  0.00    +0.055 A 
ATOM      7  C   UNL     1      -1.875  -9.560   1.376  0.00  0.00    +0.036 A 
ATOM      8  C   UNL     1      -2.582 -10.627   0.922  0.00  0.00    +0.053 A 
ATOM      9  N   UNL     1      -3.853 -10.226   0.580  0.00  0.00    -0.354 N 
ATOM     10  H   UNL     1      -4.546 -10.807   0.231  0.00  0.00    +0.166 HD
ENDROOT
BRANCH   8  11
ATOM     11  C   UNL     1      -2.065 -12.005   0.812  0.00  0.00    +0.063 A 
ATOM     12  C   UNL     1      -1.926 -12.601  -0.424  0.00  0.00    +0.025 A 
ATOM     13  C   UNL     1      -1.427 -13.926  -0.500  0.00  0.00    -0.001 A 
ATOM     14  C   UNL     1      -1.275 -14.555  -1.744  0.00  0.00    +0.010 A 
ATOM     15  C   UNL     1      -0.794 -15.830  -1.807  0.00  0.00    +0.001 A 
ATOM     16  C   UNL     1      -0.452 -16.514  -0.648  0.00  0.00    +0.002 A 
ATOM     17  C   UNL     1      -0.593 -15.917   0.586  0.00  0.00    +0.026 A 
ATOM     18  C   UNL     1      -1.081 -14.616   0.677  0.00  0.00    +0.049 A 
ATOM     19  N   UNL     1      -1.223 -14.014   1.911  0.00  0.00    -0.322 N 
ATOM     20  C   UNL     1      -1.688 -12.755   2.016  0.00  0.00    +0.258 A 
ATOM     21  O   UNL     1      -1.802 -12.239   3.113  0.00  0.00    -0.267 OA
ATOM     22  H   UNL     1      -0.980 -14.503   2.712  0.00  0.00    +0.169 HD
ENDBRANCH   8  11
BRANCH   1  23
ATOM     23  O   UNL     1      -3.539  -4.870   1.780  0.00  0.00    -0.491 OA
BRANCH  23  24
ATOM     24  C   UNL     1      -4.678  -4.031   1.578  0.00  0.00    +0.244 C 
BRANCH  24  25
ATOM     25  C   UNL     1      -4.333  -2.597   1.984  0.00  0.00    +0.125 C 
BRANCH  25  32
ATOM     26  C   UNL     1      -2.103   1.048  -2.605  0.00  0.00    +0.109 C 
ATOM     27  C   UNL     1      -1.593   0.835  -1.203  0.00  0.00    +0.213 C 
ATOM     28  O   UNL     1      -0.914   1.687  -0.668  0.00  0.00    -0.276 OA
ATOM     29  N   UNL     1      -1.891  -0.301  -0.542  0.00  0.00    -0.299 N 
ATOM     30  C   UNL     1      -2.708  -1.349  -1.174  0.00  0.00    +0.123 C 
ATOM     31  C   UNL     1      -3.849  -1.718  -0.219  0.00  0.00    +0.103 C 
ATOM     32  N   UNL     1      -3.290  -2.072   1.093  0.00  0.00    -0.296 NA
ATOM     33  C   UNL     1      -2.601  -0.928   1.704  0.00  0.00    +0.103 C 
ATOM     34  C   UNL     1      -1.404  -0.529   0.827  0.00  0.00    +0.123 C 
ENDBRANCH  25  32
ENDBRANCH  24  25
ENDBRANCH  23  24
ENDBRANCH   1  23
TORSDOF 5
