REMARK  Name = CHEMBL461293
REMARK  11 active torsions:
REMARK  status: ('A' for Active; 'I' for Inactive)
REMARK    1  A    between atoms: C_1  and  C_2
REMARK    2  A    between atoms: C_3  and  C_18
REMARK    3  A    between atoms: N_6  and  C_12
REMARK    4  A    between atoms: N_7  and  C_8
REMARK    5  A    between atoms: C_8  and  C_9
REMARK    6  A    between atoms: C_9  and  C_11
REMARK    7  A    between atoms: N_20  and  C_21
REMARK    8  A    between atoms: C_24  and  O_28
REMARK    9  A    between atoms: O_28  and  C_29
REMARK   10  A    between atoms: C_37  and  O_39
REMARK   11  A    between atoms: O_39  and  C_40
REMARK                            x       y       z     vdW  Elec       q    Type
REMARK                         _______ _______ _______ _____ _____    ______ ____
ROOT
ATOM      1  C   UNL     1       0.904   0.077  -2.344  0.00  0.00    +0.255 C 
ATOM      2  O   UNL     1       1.059   1.262  -2.573  0.00  0.00    -0.270 OA
ATOM      3  N   UNL     1       0.679  -0.781  -3.359  0.00  0.00    -0.281 N 
ATOM      4  H   UNL     1       0.478  -1.712  -3.172  0.00  0.00    +0.155 HD
ENDROOT
BRANCH   1   7
ATOM      5  C   UNL     1       1.410   1.821   0.217  0.00  0.00    +0.066 C 
ATOM      6  C   UNL     1       1.183   0.332   0.175  0.00  0.00    +0.051 A 
ATOM      7  C   UNL     1       0.962  -0.418  -0.964  0.00  0.00    +0.124 A 
ATOM      8  C   UNL     1       0.796  -1.812  -0.520  0.00  0.00    +0.284 A 
ATOM      9  O   UNL     1       0.584  -2.780  -1.226  0.00  0.00    -0.265 OA
ATOM     10  N   UNL     1       0.925  -1.804   0.823  0.00  0.00    -0.216 N 
ATOM     11  N   UNL     1       1.167  -0.492   1.240  0.00  0.00    -0.273 N 
BRANCH  10  12
ATOM     12  C   UNL     1       0.837  -2.923   1.658  0.00  0.00    +0.067 A 
ATOM     13  C   UNL     1       1.847  -3.190   2.573  0.00  0.00    +0.028 A 
ATOM     14  C   UNL     1       1.757  -4.295   3.396  0.00  0.00    +0.002 A 
ATOM     15  C   UNL     1       0.663  -5.136   3.309  0.00  0.00    +0.000 A 
ATOM     16  C   UNL     1      -0.345  -4.873   2.400  0.00  0.00    +0.002 A 
ATOM     17  C   UNL     1      -0.264  -3.767   1.577  0.00  0.00    +0.028 A 
ENDBRANCH  10  12
BRANCH  11  18
ATOM     18  C   UNL     1       1.369  -0.075   2.629  0.00  0.00    +0.216 C 
BRANCH  18  19
ATOM     19  C   UNL     1       2.801  -0.326   3.026  0.00  0.00    +0.151 C 
ATOM     20  O   UNL     1       3.573  -0.804   2.229  0.00  0.00    -0.296 OA
ATOM     21  C   UNL     1       3.270   0.020   4.415  0.00  0.00    +0.088 C 
ENDBRANCH  18  19
ENDBRANCH  11  18
ENDBRANCH   1   7
BRANCH   3  22
ATOM     22  C   UNL     1       0.735  -0.330  -4.683  0.00  0.00    +0.037 A 
ATOM     23  C   UNL     1       1.091  -1.206  -5.701  0.00  0.00    +0.027 A 
ATOM     24  C   UNL     1       1.146  -0.761  -7.007  0.00  0.00    +0.051 A 
ATOM     25  C   UNL     1       0.847   0.560  -7.304  0.00  0.00    +0.164 A 
ATOM     26  C   UNL     1       0.491   1.438  -6.287  0.00  0.00    +0.167 A 
ATOM     27  C   UNL     1       0.431   0.992  -4.980  0.00  0.00    +0.065 A 
ATOM     28  F   UNL     1       0.201   2.725  -6.576  0.00  0.00    -0.202 F 
BRANCH  25  29
ATOM     29  O   UNL     1       0.902   0.997  -8.591  0.00  0.00    -0.452 OA
BRANCH  29  30
ATOM     30  C   UNL     1       1.934   1.802  -8.946  0.00  0.00    +0.139 A 
ATOM     31  C   UNL     1       2.960   2.079  -8.059  0.00  0.00    +0.066 A 
ATOM     32  C   UNL     1       4.004   2.907  -8.451  0.00  0.00    +0.115 A 
ATOM     33  N   UNL     1       4.051   3.441  -9.649  0.00  0.00    -0.255 NA
ATOM     34  C   UNL     1       3.094   3.215 -10.556  0.00  0.00    +0.078 A 
ATOM     35  C   UNL     1       1.998   2.378 -10.234  0.00  0.00    +0.043 A 
ATOM     36  C   UNL     1       0.998   2.139 -11.189  0.00  0.00    +0.017 A 
ATOM     37  C   UNL     1       1.088   2.709 -12.421  0.00  0.00    +0.046 A 
ATOM     38  C   UNL     1       2.168   3.533 -12.751  0.00  0.00    +0.122 A 
ATOM     39  C   UNL     1       3.160   3.795 -11.833  0.00  0.00    +0.074 A 
BRANCH  38  40
ATOM     40  O   UNL     1       2.235   4.089 -13.988  0.00  0.00    -0.495 OA
ATOM     41  C   UNL     1       1.170   3.788 -14.893  0.00  0.00    +0.277 C 
ENDBRANCH  38  40
ENDBRANCH  29  30
ENDBRANCH  25  29
ENDBRANCH   3  22
TORSDOF 8
