REMARK  Name = CHEMBL231569
REMARK  11 active torsions:
REMARK  status: ('A' for Active; 'I' for Inactive)
REMARK    1  A    between atoms: C_1  and  N_2
REMARK    2  A    between atoms: C_3  and  C_5
REMARK    3  A    between atoms: C_7  and  O_11
REMARK    4  A    between atoms: O_11  and  C_12
REMARK    5  A    between atoms: N_21  and  C_22
REMARK    6  A    between atoms: C_26  and  O_28
REMARK    7  A    between atoms: O_28  and  C_29
REMARK    8  A    between atoms: C_29  and  C_30
REMARK    9  A    between atoms: C_30  and  N_31
REMARK   10  A    between atoms: N_31  and  C_32
REMARK   11  A    between atoms: N_31  and  C_33
REMARK                            x       y       z     vdW  Elec       q    Type
REMARK                         _______ _______ _______ _____ _____    ______ ____
ROOT
ATOM      1  C   UNL     1       1.934  -6.164   3.476  0.00  0.00    +0.131 A 
ATOM      2  C   UNL     1       1.480  -6.853   2.356  0.00  0.00    +0.050 A 
ATOM      3  C   UNL     1       1.514  -8.232   2.324  0.00  0.00    +0.052 A 
ATOM      4  C   UNL     1       2.002  -8.938   3.411  0.00  0.00    +0.157 A 
ATOM      5  C   UNL     1       2.462  -8.249   4.544  0.00  0.00    +0.115 A 
ATOM      6  C   UNL     1       2.429  -6.854   4.566  0.00  0.00    +0.078 A 
ATOM      7  N   UNL     1       2.873  -9.194   5.434  0.00  0.00    -0.195 NA
ATOM      8  C   UNL     1       2.689 -10.377   4.906  0.00  0.00    +0.293 A 
ATOM      9  O   UNL     1       2.160 -10.256   3.676  0.00  0.00    -0.424 OA
ATOM     10  N   UNL     1       2.992 -11.572   5.521  0.00  0.00    -0.269 N 
ATOM     11  H   UNL     1       3.282 -11.581   6.447  0.00  0.00    +0.157 HD
ENDROOT
BRANCH  10  12
ATOM     12  C   UNL     1       2.883 -12.771   4.811  0.00  0.00    +0.038 A 
ATOM     13  C   UNL     1       3.030 -12.777   3.429  0.00  0.00    +0.025 A 
ATOM     14  C   UNL     1       2.922 -13.962   2.727  0.00  0.00    +0.025 A 
ATOM     15  C   UNL     1       2.667 -15.145   3.397  0.00  0.00    +0.083 A 
ATOM     16  C   UNL     1       2.521 -15.145   4.778  0.00  0.00    +0.140 A 
ATOM     17  C   UNL     1       2.634 -13.958   5.486  0.00  0.00    +0.070 A 
ATOM     18 CL   UNL     1       2.531 -16.631   2.511  0.00  0.00    -0.080 Cl
BRANCH  16  19
ATOM     19  O   UNL     1       2.270 -16.308   5.436  0.00  0.00    -0.492 OA
BRANCH  19  20
ATOM     20  C   UNL     1       2.131 -16.233   6.856  0.00  0.00    +0.210 C 
BRANCH  20  21
ATOM     21  C   UNL     1       1.855 -17.630   7.416  0.00  0.00    -0.038 C 
BRANCH  21  22
ATOM     22  N   UNL     1       3.018 -18.493   7.172  0.00  0.00    +0.378 N 
ATOM     23  C   UNL     1       4.161 -18.008   7.956  0.00  0.00    -0.096 C 
ATOM     24  C   UNL     1       2.698 -19.870   7.573  0.00  0.00    -0.096 C 
ATOM     25  H   UNL     1       3.251 -18.475   6.191  0.00  0.00    -0.082 HD
ENDBRANCH  21  22
ENDBRANCH  20  21
ENDBRANCH  19  20
ENDBRANCH  16  19
ENDBRANCH  10  12
BRANCH   1  26
ATOM     26  O   UNL     1       1.896  -4.805   3.496  0.00  0.00    -0.456 OA
BRANCH  26  29
ATOM     27  C   UNL     1      -1.677  -4.301   4.029  0.00  0.00    +0.129 A 
ATOM     28  C   UNL     1      -0.470  -4.957   3.810  0.00  0.00    +0.079 A 
ATOM     29  C   UNL     1       0.698  -4.204   3.710  0.00  0.00    +0.132 A 
ATOM     30  C   UNL     1       0.606  -2.820   3.835  0.00  0.00    +0.066 A 
ATOM     31  C   UNL     1      -0.631  -2.241   4.053  0.00  0.00    +0.115 A 
ATOM     32  N   UNL     1      -1.718  -2.978   4.137  0.00  0.00    -0.250 NA
BRANCH  27  35
ATOM     33  C   UNL     1      -5.341  -5.234   4.453  0.00  0.00    +0.128 C 
ATOM     34  N   UNL     1      -4.103  -4.458   4.346  0.00  0.00    -0.313 N 
ATOM     35  C   UNL     1      -2.929  -5.087   4.138  0.00  0.00    +0.262 C 
ATOM     36  O   UNL     1      -2.897  -6.297   4.040  0.00  0.00    -0.269 OA
ATOM     37  H   UNL     1      -4.128  -3.491   4.424  0.00  0.00    +0.149 HD
ENDBRANCH  27  35
ENDBRANCH  26  29
ENDBRANCH   1  26
TORSDOF 8
