REMARK  Name = CHEMBL225336
REMARK  8 active torsions:
REMARK  status: ('A' for Active; 'I' for Inactive)
REMARK    1  A    between atoms: C_1  and  N_2
REMARK    2  A    between atoms: N_5  and  C_8
REMARK    3  A    between atoms: C_8  and  C_9
REMARK    4  A    between atoms: C_21  and  C_22
REMARK    5  A    between atoms: C_24  and  C_27
REMARK    6  A    between atoms: C_28  and  C_29
REMARK    7  A    between atoms: C_29  and  N_30
REMARK    8  A    between atoms: N_33  and  C_34
REMARK                            x       y       z     vdW  Elec       q    Type
REMARK                         _______ _______ _______ _____ _____    ______ ____
ROOT
ATOM      1  C   UNL     1      -0.116  -4.405   2.524  0.00  0.00    -0.033 A 
ATOM      2  C   UNL     1       1.239  -4.640   2.675  0.00  0.00    +0.005 A 
ATOM      3  C   UNL     1       1.738  -5.078   3.883  0.00  0.00    +0.010 A 
ATOM      4  C   UNL     1       0.874  -5.286   4.960  0.00  0.00    +0.006 A 
ATOM      5  C   UNL     1      -0.487  -5.048   4.799  0.00  0.00    -0.033 A 
ATOM      6  C   UNL     1      -0.977  -4.605   3.588  0.00  0.00    +0.009 A 
ATOM      7  C   UNL     1      -1.167  -5.355   6.111  0.00  0.00    +0.075 C 
ATOM      8  C   UNL     1      -0.075  -5.795   7.055  0.00  0.00    +0.010 A 
ATOM      9  C   UNL     1       1.137  -5.747   6.347  0.00  0.00    +0.097 A 
ATOM     10  N   UNL     1       2.100  -6.131   7.163  0.00  0.00    -0.173 NA
ATOM     11  H   UNL     1       2.015  -6.739   9.193  0.00  0.00    +0.189 HD
ATOM     12  N   UNL     1       1.535  -6.433   8.408  0.00  0.00    -0.276 N 
ATOM     13  C   UNL     1       0.191  -6.220   8.322  0.00  0.00    +0.070 A 
ENDROOT
BRANCH  13  14
ATOM     14  C   UNL     1      -0.798  -6.414   9.406  0.00  0.00    +0.008 A 
ATOM     15  C   UNL     1      -0.543  -5.947  10.688  0.00  0.00    +0.034 A 
ATOM     16  C   UNL     1      -1.486  -6.149  11.659  0.00  0.00    +0.063 A 
ATOM     17  S   UNL     1      -2.768  -7.013  10.768  0.00  0.00    -0.088 S 
ATOM     18  C   UNL     1      -1.986  -7.053   9.164  0.00  0.00    +0.056 A 
BRANCH  16  19
ATOM     19  C   UNL     1      -1.452  -5.765  13.039  0.00  0.00    -0.058 C 
ATOM     20  C   UNL     1      -1.424  -5.450  14.169  0.00  0.00    -0.077 C 
BRANCH  20  21
ATOM     21  C   UNL     1      -1.390  -5.055  15.587  0.00  0.00    +0.195 C 
BRANCH  21  22
ATOM     22  N   UNL     1      -2.627  -5.484  16.244  0.00  0.00    -0.288 N 
ATOM     23  C   UNL     1      -2.818  -5.229  17.553  0.00  0.00    +0.305 C 
ATOM     24  O   UNL     1      -1.964  -4.643  18.189  0.00  0.00    -0.252 OA
ATOM     25  N   UNL     1      -3.957  -5.624  18.157  0.00  0.00    -0.269 N 
ATOM     26  H   UNL     1      -3.308  -5.952  15.736  0.00  0.00    +0.151 HD
ATOM     27  H   UNL     1      -4.666  -6.032  17.637  0.00  0.00    +0.156 HD
BRANCH  25  28
ATOM     28  C   UNL     1      -4.115  -5.446  19.537  0.00  0.00    +0.035 A 
ATOM     29  C   UNL     1      -4.808  -6.388  20.285  0.00  0.00    +0.023 A 
ATOM     30  C   UNL     1      -4.962  -6.209  21.646  0.00  0.00    +0.002 A 
ATOM     31  C   UNL     1      -4.427  -5.093  22.263  0.00  0.00    +0.000 A 
ATOM     32  C   UNL     1      -3.737  -4.153  21.520  0.00  0.00    +0.002 A 
ATOM     33  C   UNL     1      -3.575  -4.329  20.160  0.00  0.00    +0.023 A 
ENDBRANCH  25  28
ENDBRANCH  21  22
ENDBRANCH  20  21
ENDBRANCH  16  19
ENDBRANCH  13  14
BRANCH   1  34
ATOM     34  C   UNL     1      -0.654  -3.926   1.200  0.00  0.00    +0.119 C 
BRANCH  34  39
ATOM     35  C   UNL     1      -0.017   1.551   0.044  0.00  0.00    -0.096 C 
ATOM     36  N   UNL     1      -0.004   0.083   0.028  0.00  0.00    +0.379 N 
ATOM     37  C   UNL     1      -1.384  -0.419   0.036  0.00  0.00    -0.064 C 
ATOM     38  C   UNL     1      -1.371  -1.949  -0.000  0.00  0.00    +0.066 C 
ATOM     39  N   UNL     1      -0.640  -2.458   1.169  0.00  0.00    -0.302 NA
ATOM     40  C   UNL     1       0.737  -1.944   1.187  0.00  0.00    +0.066 C 
ATOM     41  C   UNL     1       0.706  -0.414   1.214  0.00  0.00    -0.064 C 
ATOM     42  H   UNL     1       0.466  -0.240  -0.805  0.00  0.00    -0.082 HD
ENDBRANCH  34  39
ENDBRANCH   1  34
TORSDOF 7
