REMARK  Name = CHEMBL452783
REMARK  6 active torsions:
REMARK  status: ('A' for Active; 'I' for Inactive)
REMARK    1  A    between atoms: C_1  and  C_2
REMARK    2  A    between atoms: C_6  and  N_8
REMARK    3  A    between atoms: N_11  and  C_12
REMARK    4  A    between atoms: C_15  and  C_18
REMARK    5  A    between atoms: C_22  and  C_28
REMARK    6  A    between atoms: C_26  and  N_27
REMARK                            x       y       z     vdW  Elec       q    Type
REMARK                         _______ _______ _______ _____ _____    ______ ____
ROOT
ATOM      1  C   UNL     1      -0.066  -6.218   3.647  0.00  0.00    +0.035 A 
ATOM      2  C   UNL     1      -0.055  -6.910   2.442  0.00  0.00    +0.024 A 
ATOM      3  C   UNL     1      -0.032  -8.289   2.437  0.00  0.00    +0.010 A 
ATOM      4  C   UNL     1      -0.020  -8.989   3.643  0.00  0.00    -0.013 A 
ATOM      5  C   UNL     1      -0.031  -8.293   4.851  0.00  0.00    +0.010 A 
ATOM      6  C   UNL     1      -0.049  -6.914   4.850  0.00  0.00    +0.024 A 
ENDROOT
BRANCH   4   7
ATOM      7  C   UNL     1       0.005 -10.471   3.640  0.00  0.00    +0.040 A 
ATOM      8  C   UNL     1      -1.079 -11.203   3.123  0.00  0.00    +0.125 A 
ATOM      9  N   UNL     1      -1.051 -12.515   3.124  0.00  0.00    -0.235 NA
ATOM     10  C   UNL     1      -0.001 -13.191   3.613  0.00  0.00    +0.161 A 
ATOM     11  C   UNL     1       0.266 -14.549   3.726  0.00  0.00    +0.020 A 
ATOM     12  C   UNL     1       1.516 -14.685   4.313  0.00  0.00    +0.141 A 
ATOM     13  N   UNL     1       2.006 -13.491   4.556  0.00  0.00    -0.171 NA
ATOM     14  N   UNL     1       1.083 -12.529   4.130  0.00  0.00    -0.200 N 
ATOM     15  C   UNL     1       1.102 -11.161   4.145  0.00  0.00    +0.129 A 
BRANCH  15  16
ATOM     16  N   UNL     1       2.184 -10.480   4.655  0.00  0.00    -0.343 N 
ATOM     17  H   UNL     1       2.186  -9.510   4.665  0.00  0.00    +0.144 HD
ATOM     18  H   UNL     1       2.944 -10.970   5.005  0.00  0.00    +0.144 HD
ENDBRANCH  15  16
BRANCH  11  19
ATOM     19  C   UNL     1      -0.639 -15.672   3.289  0.00  0.00    +0.024 C 
ATOM     20  C   UNL     1      -0.242 -17.095   3.688  0.00  0.00    +0.009 C 
ATOM     21  C   UNL     1      -0.104 -16.641   2.233  0.00  0.00    +0.009 C 
ENDBRANCH  11  19
ENDBRANCH   4   7
BRANCH   1  25
ATOM     22  N   UNL     1      -0.678  -2.809   2.618  0.00  0.00    -0.269 N 
ATOM     23  C   UNL     1      -0.743  -4.154   2.676  0.00  0.00    +0.308 C 
ATOM     24  O   UNL     1      -1.390  -4.768   1.849  0.00  0.00    -0.252 OA
ATOM     25  N   UNL     1      -0.089  -4.819   3.649  0.00  0.00    -0.269 N 
ATOM     26  H   UNL     1      -0.103  -2.325   3.230  0.00  0.00    +0.156 HD
ATOM     27  H   UNL     1       0.364  -4.327   4.352  0.00  0.00    +0.156 HD
BRANCH  22  33
ATOM     28  C   UNL     1      -1.185   1.025  -0.417  0.00  0.00    +0.044 C 
ATOM     29  C   UNL     1      -1.712  -0.251   0.188  0.00  0.00    -0.049 A 
ATOM     30  C   UNL     1      -2.952  -0.734  -0.189  0.00  0.00    +0.003 A 
ATOM     31  C   UNL     1      -3.438  -1.904   0.363  0.00  0.00    +0.002 A 
ATOM     32  C   UNL     1      -2.687  -2.595   1.294  0.00  0.00    +0.023 A 
ATOM     33  C   UNL     1      -1.442  -2.112   1.675  0.00  0.00    +0.035 A 
ATOM     34  C   UNL     1      -0.954  -0.939   1.114  0.00  0.00    +0.026 A 
ENDBRANCH  22  33
ENDBRANCH   1  25
TORSDOF 5
