REMARK  Name = CHEMBL117983
REMARK  4 active torsions:
REMARK  status: ('A' for Active; 'I' for Inactive)
REMARK    1  A    between atoms: C_1  and  N_2
REMARK    2  A    between atoms: N_5  and  S_8
REMARK    3  A    between atoms: S_8  and  C_11
REMARK    4  A    between atoms: C_18  and  C_21
REMARK                            x       y       z     vdW  Elec       q    Type
REMARK                         _______ _______ _______ _____ _____    ______ ____
ROOT
ATOM      1  C   UNL     1       3.693  -3.114  -0.187  0.00  0.00    +0.106 A 
ATOM      2  C   UNL     1       4.260  -2.816  -1.419  0.00  0.00    +0.030 A 
ATOM      3  C   UNL     1       5.511  -2.244  -1.498  0.00  0.00    +0.028 A 
ATOM      4  C   UNL     1       6.216  -1.959  -0.333  0.00  0.00    +0.047 A 
ATOM      5  C   UNL     1       5.638  -2.262   0.914  0.00  0.00    +0.002 A 
ATOM      6  C   UNL     1       4.365  -2.838   0.971  0.00  0.00    +0.038 A 
ATOM      7  C   UNL     1       6.608  -1.852   1.927  0.00  0.00    +0.036 A 
ATOM      8  C   UNL     1       7.679  -1.343   1.266  0.00  0.00    +0.053 A 
ATOM      9  N   UNL     1       7.454  -1.403  -0.090  0.00  0.00    -0.354 N 
ATOM     10  H   UNL     1       8.072  -1.100  -0.773  0.00  0.00    +0.166 HD
ENDROOT
BRANCH   8  11
ATOM     11  C   UNL     1       8.898  -0.808   1.903  0.00  0.00    +0.063 A 
ATOM     12  C   UNL     1       9.216   0.529   1.787  0.00  0.00    +0.025 A 
ATOM     13  C   UNL     1      10.393   1.015   2.410  0.00  0.00    -0.001 A 
ATOM     14  C   UNL     1      10.739   2.371   2.307  0.00  0.00    +0.010 A 
ATOM     15  C   UNL     1      11.874   2.830   2.911  0.00  0.00    +0.001 A 
ATOM     16  C   UNL     1      12.691   1.966   3.628  0.00  0.00    +0.002 A 
ATOM     17  C   UNL     1      12.371   0.631   3.743  0.00  0.00    +0.026 A 
ATOM     18  C   UNL     1      11.219   0.138   3.136  0.00  0.00    +0.049 A 
ATOM     19  N   UNL     1      10.895  -1.199   3.249  0.00  0.00    -0.322 N 
ATOM     20  C   UNL     1       9.781  -1.690   2.674  0.00  0.00    +0.258 A 
ATOM     21  O   UNL     1       9.509  -2.872   2.789  0.00  0.00    -0.267 OA
ATOM     22  H   UNL     1      11.474  -1.791   3.753  0.00  0.00    +0.169 HD
ENDBRANCH   8  11
BRANCH   1  23
ATOM     23  S   UNL     1       2.092  -3.845  -0.115  0.00  0.00    +0.061 S 
ATOM     24  O   UNL     1       2.009  -4.521   1.132  0.00  0.00    -0.153 OA
ATOM     25  O   UNL     1       1.892  -4.508  -1.356  0.00  0.00    -0.153 OA
BRANCH  23  30
ATOM     26  C   UNL     1      -0.018   1.465   0.010  0.00  0.00    +0.105 C 
ATOM     27  N   UNL     1       0.002  -0.004   0.002  0.00  0.00    -0.303 NA
ATOM     28  C   UNL     1       0.592  -0.516  -1.242  0.00  0.00    +0.101 C 
ATOM     29  C   UNL     1       0.430  -2.039  -1.292  0.00  0.00    +0.125 C 
ATOM     30  N   UNL     1       0.991  -2.608  -0.057  0.00  0.00    -0.174 NA
ATOM     31  C   UNL     1       0.549  -2.051   1.230  0.00  0.00    +0.125 C 
ATOM     32  C   UNL     1       0.706  -0.527   1.180  0.00  0.00    +0.101 C 
ENDBRANCH  23  30
ENDBRANCH   1  23
TORSDOF 3
