REMARK  Name = CHEMBL178174
REMARK  12 active torsions:
REMARK  status: ('A' for Active; 'I' for Inactive)
REMARK    1  A    between atoms: C_1  and  C_2
REMARK    2  A    between atoms: C_5  and  N_9
REMARK    3  A    between atoms: C_7  and  O_8
REMARK    4  A    between atoms: C_12  and  C_31
REMARK    5  A    between atoms: C_13  and  N_19
REMARK    6  A    between atoms: C_20  and  O_22
REMARK    7  A    between atoms: O_22  and  C_23
REMARK    8  A    between atoms: C_23  and  C_24
REMARK    9  A    between atoms: C_24  and  C_25
REMARK   10  A    between atoms: C_25  and  N_26
REMARK   11  A    between atoms: C_31  and  C_32
REMARK   12  A    between atoms: C_31  and  C_33
REMARK                            x       y       z     vdW  Elec       q    Type
REMARK                         _______ _______ _______ _____ _____    ______ ____
ROOT
ATOM      1  N   UNL     1      -0.181  -4.165  -0.013  0.00  0.00    -0.298 N 
ATOM      2  C   UNL     1      -0.244  -4.849  -1.212  0.00  0.00    +0.151 A 
ATOM      3  C   UNL     1      -0.226  -6.262  -1.232  0.00  0.00    +0.111 A 
ATOM      4  C   UNL     1      -0.155  -7.230  -0.249  0.00  0.00    +0.007 A 
ATOM      5  C   UNL     1      -0.178  -8.471  -0.896  0.00  0.00    +0.060 A 
ATOM      6  C   UNL     1      -0.261  -8.242  -2.238  0.00  0.00    +0.136 A 
ATOM      7  N   UNL     1      -0.291  -6.906  -2.453  0.00  0.00    -0.233 N 
ATOM      8  N   UNL     1      -0.370  -6.124  -3.614  0.00  0.00    -0.155 NA
ATOM      9  C   UNL     1      -0.381  -4.822  -3.526  0.00  0.00    +0.245 A 
ATOM     10  N   UNL     1      -0.326  -4.188  -2.356  0.00  0.00    -0.217 NA
ATOM     11  H   UNL     1      -0.219  -4.652   0.825  0.00  0.00    +0.154 HD
ENDROOT
BRANCH   1  16
ATOM     12  C   UNL     1       0.289   1.490  -0.001  0.00  0.00    +0.047 C 
ATOM     13  C   UNL     1       0.165  -0.012  -0.003  0.00  0.00    -0.009 A 
ATOM     14  C   UNL     1      -0.211  -0.671  -1.158  0.00  0.00    +0.009 A 
ATOM     15  C   UNL     1      -0.326  -2.048  -1.163  0.00  0.00    +0.024 A 
ATOM     16  C   UNL     1      -0.064  -2.773  -0.007  0.00  0.00    +0.036 A 
ATOM     17  C   UNL     1       0.313  -2.112   1.153  0.00  0.00    +0.069 A 
ATOM     18  C   UNL     1       0.433  -0.731   1.154  0.00  0.00    +0.122 A 
BRANCH  18  19
ATOM     19  O   UNL     1       0.807  -0.081   2.287  0.00  0.00    -0.506 OA
ATOM     20  H   UNL     1       0.068   0.177   2.855  0.00  0.00    +0.292 HD
ENDBRANCH  18  19
ENDBRANCH   1  16
BRANCH   5  21
ATOM     21  N   UNL     1      -0.124  -9.731  -0.273  0.00  0.00    -0.249 N 
ATOM     22  C   UNL     1      -0.154 -10.853  -1.018  0.00  0.00    +0.405 C 
ATOM     23  O   UNL     1      -0.228 -10.777  -2.229  0.00  0.00    -0.226 OA
ATOM     24  H   UNL     1      -0.065  -9.792   0.694  0.00  0.00    +0.158 HD
BRANCH  22  25
ATOM     25  O   UNL     1      -0.103 -12.059  -0.422  0.00  0.00    -0.450 OA
BRANCH  25  26
ATOM     26  C   UNL     1      -0.139 -13.206  -1.273  0.00  0.00    +0.235 C 
BRANCH  26  27
ATOM     27  C   UNL     1      -0.072 -14.476  -0.422  0.00  0.00    +0.066 C 
BRANCH  27  28
ATOM     28  C   UNL     1      -0.111 -15.704  -1.334  0.00  0.00    +0.170 C 
BRANCH  28  29
ATOM     29  N   UNL     1      -0.046 -16.920  -0.519  0.00  0.00    -0.183 N 
ATOM     30  N   UNL     1       1.043 -17.509  -0.171  0.00  0.00    -0.161 NA
ATOM     31  C   UNL     1       0.739 -18.563   0.552  0.00  0.00    +0.156 A 
ATOM     32  C   UNL     1      -0.655 -18.585   0.630  0.00  0.00    +0.156 A 
ATOM     33  N   UNL     1      -1.070 -17.539  -0.049  0.00  0.00    -0.161 NA
ENDBRANCH  28  29
ENDBRANCH  27  28
ENDBRANCH  26  27
ENDBRANCH  25  26
ENDBRANCH  22  25
ENDBRANCH   5  21
BRANCH   4  34
ATOM     34  C   UNL     1      -0.069  -6.995   1.237  0.00  0.00    +0.017 C 
ATOM     35  C   UNL     1      -1.266  -7.651   1.928  0.00  0.00    +0.012 C 
ATOM     36  C   UNL     1       1.228  -7.603   1.775  0.00  0.00    +0.012 C 
ENDBRANCH   4  34
TORSDOF 9
