REMARK  Name = CHEMBL202389
REMARK  13 active torsions:
REMARK  status: ('A' for Active; 'I' for Inactive)
REMARK    1  A    between atoms: C_1  and  C_2
REMARK    2  A    between atoms: C_2  and  N_3
REMARK    3  A    between atoms: N_3  and  C_4
REMARK    4  A    between atoms: C_8  and  O_10
REMARK    5  A    between atoms: O_10  and  C_11
REMARK    6  A    between atoms: N_19  and  C_20
REMARK    7  A    between atoms: C_23  and  O_35
REMARK    8  A    between atoms: C_24  and  O_30
REMARK    9  A    between atoms: O_30  and  C_31
REMARK   10  A    between atoms: C_31  and  C_32
REMARK   11  A    between atoms: C_32  and  O_33
REMARK   12  A    between atoms: O_33  and  C_34
REMARK   13  A    between atoms: O_35  and  C_36
REMARK                            x       y       z     vdW  Elec       q    Type
REMARK                         _______ _______ _______ _____ _____    ______ ____
ROOT
ATOM      1  C   UNL     1       2.369  -5.413  -4.195  0.00  0.00    +0.175 C 
ATOM      2  C   UNL     1       1.816  -6.327  -3.359  0.00  0.00    +0.102 C 
ATOM      3  C   UNL     1       1.967  -7.764  -3.633  0.00  0.00    +0.204 C 
ATOM      4  O   UNL     1       1.657  -8.602  -2.808  0.00  0.00    -0.286 OA
ATOM      5  C   UNL     1       2.513  -8.150  -4.963  0.00  0.00    +0.098 C 
ATOM      6  C   UNL     1       3.607  -7.252  -5.517  0.00  0.00    +0.142 C 
ATOM      7  C   UNL     1       3.102  -5.827  -5.407  0.00  0.00    +0.204 C 
ATOM      8  O   UNL     1       3.300  -5.037  -6.299  0.00  0.00    -0.288 OA
ATOM      9  N   UNL     1       2.081  -9.195  -5.612  0.00  0.00    -0.228 NA
ENDROOT
BRANCH   9  10
ATOM     10  C   UNL     1       2.683  -9.571  -6.774  0.00  0.00    +0.164 A 
ATOM     11  C   UNL     1       3.830 -10.406  -6.764  0.00  0.00    +0.048 A 
ATOM     12  C   UNL     1       4.394 -10.879  -5.576  0.00  0.00    +0.063 A 
ATOM     13  C   UNL     1       5.499 -11.682  -5.627  0.00  0.00    +0.162 A 
ATOM     14  C   UNL     1       6.074 -12.035  -6.858  0.00  0.00    +0.164 A 
ATOM     15  C   UNL     1       5.543 -11.586  -8.034  0.00  0.00    +0.078 A 
ATOM     16  C   UNL     1       4.408 -10.762  -8.011  0.00  0.00    +0.080 A 
ATOM     17  N   UNL     1       3.850 -10.297  -9.135  0.00  0.00    -0.235 NA
ATOM     18  C   UNL     1       2.787  -9.526  -9.084  0.00  0.00    +0.224 A 
ATOM     19  N   UNL     1       2.209  -9.171  -7.951  0.00  0.00    -0.216 NA
BRANCH  13  20
ATOM     20  O   UNL     1       6.048 -12.142  -4.472  0.00  0.00    -0.491 OA
ATOM     21  C   UNL     1       5.419 -11.748  -3.252  0.00  0.00    +0.277 C 
ENDBRANCH  13  20
BRANCH  14  22
ATOM     22  O   UNL     1       7.173 -12.833  -6.880  0.00  0.00    -0.486 OA
BRANCH  22  23
ATOM     23  C   UNL     1       7.713 -13.158  -8.163  0.00  0.00    +0.257 C 
BRANCH  23  24
ATOM     24  C   UNL     1       8.937 -14.058  -7.988  0.00  0.00    +0.200 C 
BRANCH  24  25
ATOM     25  O   UNL     1       8.534 -15.306  -7.420  0.00  0.00    -0.380 OA
ATOM     26  C   UNL     1       9.608 -16.225  -7.214  0.00  0.00    +0.194 C 
ENDBRANCH  24  25
ENDBRANCH  23  24
ENDBRANCH  22  23
ENDBRANCH  14  22
ENDBRANCH   9  10
BRANCH   1  27
ATOM     27  O   UNL     1       2.240  -4.096  -3.916  0.00  0.00    -0.452 OA
BRANCH  27  32
ATOM     28  C   UNL     1       4.445  -1.318  -3.085  0.00  0.00    +0.031 A 
ATOM     29  C   UNL     1       5.654  -1.988  -2.940  0.00  0.00    +0.023 A 
ATOM     30  C   UNL     1       5.714  -3.355  -3.123  0.00  0.00    +0.005 A 
ATOM     31  C   UNL     1       4.573  -4.062  -3.449  0.00  0.00    +0.046 A 
ATOM     32  C   UNL     1       3.361  -3.400  -3.595  0.00  0.00    +0.130 A 
ATOM     33  C   UNL     1       3.296  -2.027  -3.407  0.00  0.00    +0.069 A 
BRANCH  28  34
ATOM     34  N   UNL     1       4.385   0.065  -2.900  0.00  0.00    -0.344 N 
ATOM     35  H   UNL     1       3.539   0.531  -2.997  0.00  0.00    +0.146 HD
BRANCH  34  37
ATOM     36  C   UNL     1       5.258   2.297  -2.415  0.00  0.00    +0.024 C 
ATOM     37  C   UNL     1       5.598   0.812  -2.560  0.00  0.00    +0.098 C 
ENDBRANCH  34  37
ENDBRANCH  28  34
ENDBRANCH  27  32
ENDBRANCH   1  27
TORSDOF 10
