REMARK  Name = CHEMBL377734
REMARK  5 active torsions:
REMARK  status: ('A' for Active; 'I' for Inactive)
REMARK    1  A    between atoms: C_11  and  C_13
REMARK    2  A    between atoms: C_13  and  N_14
REMARK    3  A    between atoms: N_14  and  C_15
REMARK    4  A    between atoms: C_17  and  C_23
REMARK    5  A    between atoms: N_25  and  C_26
REMARK                            x       y       z     vdW  Elec       q    Type
REMARK                         _______ _______ _______ _____ _____    ______ ____
ROOT
ATOM      1  N   UNL     1      -3.202  -6.136  -0.885  0.00  0.00    -0.337 N 
ATOM      2  H   UNL     1      -2.847  -5.699  -1.676  0.00  0.00    +0.146 HD
ENDROOT
BRANCH   1   3
ATOM      3  C   UNL     1      -4.068  -7.228  -1.018  0.00  0.00    +0.064 A 
ATOM      4  C   UNL     1      -4.578  -7.846   0.110  0.00  0.00    +0.041 A 
ATOM      5  C   UNL     1      -5.442  -8.936  -0.026  0.00  0.00    +0.074 A 
ATOM      6  C   UNL     1      -5.786  -9.395  -1.302  0.00  0.00    +0.138 A 
ATOM      7  C   UNL     1      -5.271  -8.770  -2.422  0.00  0.00    +0.079 A 
ATOM      8  C   UNL     1      -4.419  -7.688  -2.285  0.00  0.00    +0.147 A 
ATOM      9  F   UNL     1      -3.923  -7.078  -3.384  0.00  0.00    -0.203 F 
ATOM     10  F   UNL     1      -6.621 -10.448  -1.439  0.00  0.00    -0.205 F 
BRANCH   5  11
ATOM     11  C   UNL     1      -5.990  -9.600   1.172  0.00  0.00    +0.247 C 
ATOM     12  O   UNL     1      -6.742 -10.548   1.052  0.00  0.00    -0.270 OA
ATOM     13  N   UNL     1      -5.657  -9.156   2.401  0.00  0.00    -0.308 N 
ATOM     14  H   UNL     1      -5.057  -8.400   2.497  0.00  0.00    +0.149 HD
BRANCH  13  15
ATOM     15  C   UNL     1      -6.200  -9.816   3.590  0.00  0.00    +0.073 C 
ATOM     16  C   UNL     1      -6.705  -8.922   4.725  0.00  0.00    +0.024 C 
ATOM     17  C   UNL     1      -5.399  -9.704   4.889  0.00  0.00    +0.024 C 
ENDBRANCH  13  15
ENDBRANCH   5  11
ENDBRANCH   1   3
BRANCH   1  18
ATOM     18  C   UNL     1      -2.832  -5.652   0.447  0.00  0.00    +0.145 C 
BRANCH  18  29
ATOM     19  C   UNL     1       2.369   1.437  -0.015  0.00  0.00    +0.005 A 
ATOM     20  C   UNL     1       1.126   2.057  -0.005  0.00  0.00    +0.020 A 
ATOM     21  C   UNL     1      -0.016   1.281  -0.002  0.00  0.00    +0.113 A 
ATOM     22  N   UNL     1       0.061  -0.036  -0.008  0.00  0.00    -0.240 NA
ATOM     23  C   UNL     1       1.226  -0.664  -0.017  0.00  0.00    +0.124 A 
ATOM     24  C   UNL     1       2.418   0.055  -0.021  0.00  0.00    +0.044 A 
ATOM     25  N   UNL     1       1.260  -2.055  -0.022  0.00  0.00    -0.279 N 
ATOM     26  C   UNL     1       0.082  -2.778   0.090  0.00  0.00    +0.164 A 
ATOM     27  N   UNL     1      -1.155  -2.328   0.116  0.00  0.00    -0.233 NA
ATOM     28  C   UNL     1      -2.179  -3.154   0.228  0.00  0.00    +0.125 A 
ATOM     29  C   UNL     1      -1.898  -4.477   0.313  0.00  0.00    +0.028 A 
ATOM     30  S   UNL     1      -0.115  -4.445   0.218  0.00  0.00    -0.055 S 
ATOM     31  H   UNL     1       2.108  -2.519  -0.104  0.00  0.00    +0.155 HD
ENDBRANCH  18  29
ENDBRANCH   1  18
TORSDOF 5
