REMARK  Name = CHEMBL236205
REMARK  7 active torsions:
REMARK  status: ('A' for Active; 'I' for Inactive)
REMARK    1  A    between atoms: C_3  and  O_23
REMARK    2  A    between atoms: C_6  and  N_7
REMARK    3  A    between atoms: C_8  and  C_10
REMARK    4  A    between atoms: N_14  and  C_15
REMARK    5  A    between atoms: C_15  and  C_16
REMARK    6  A    between atoms: C_16  and  C_17
REMARK    7  A    between atoms: O_23  and  C_24
REMARK                            x       y       z     vdW  Elec       q    Type
REMARK                         _______ _______ _______ _____ _____    ______ ____
ROOT
ATOM      1  N   UNL     1      -1.185  -0.719  -0.340  0.00  0.00    -0.280 N 
ATOM      2  C   UNL     1      -1.178  -2.064  -0.271  0.00  0.00    +0.266 C 
ATOM      3  O   UNL     1      -0.121  -2.664  -0.204  0.00  0.00    -0.268 OA
ATOM      4  H   UNL     1      -2.025  -0.235  -0.291  0.00  0.00    +0.155 HD
ENDROOT
BRANCH   1  10
ATOM      5  C   UNL     1       0.031   1.368  -0.388  0.00  0.00    +0.027 A 
ATOM      6  C   UNL     1       1.219   2.058  -0.528  0.00  0.00    +0.048 A 
ATOM      7  C   UNL     1       2.399   1.367  -0.763  0.00  0.00    +0.130 A 
ATOM      8  C   UNL     1       2.387  -0.017  -0.858  0.00  0.00    +0.048 A 
ATOM      9  C   UNL     1       1.200  -0.708  -0.718  0.00  0.00    +0.027 A 
ATOM     10  C   UNL     1       0.018  -0.018  -0.483  0.00  0.00    +0.034 A 
BRANCH   7  11
ATOM     11  O   UNL     1       3.568   2.048  -0.902  0.00  0.00    -0.406 OA
BRANCH  11  12
ATOM     12  C   UNL     1       4.745   1.274  -1.143  0.00  0.00    +0.575 C 
ATOM     13  F   UNL     1       4.591   0.546  -2.328  0.00  0.00    -0.133 F 
ATOM     14  F   UNL     1       5.848   2.126  -1.259  0.00  0.00    -0.133 F 
ATOM     15  F   UNL     1       4.948   0.391  -0.077  0.00  0.00    -0.133 F 
ENDBRANCH  11  12
ENDBRANCH   7  11
ENDBRANCH   1  10
BRANCH   2  16
ATOM     16  C   UNL     1      -2.447  -2.809  -0.278  0.00  0.00    +0.124 A 
ATOM     17  C   UNL     1      -2.604  -4.184  -0.261  0.00  0.00    +0.054 A 
ATOM     18  C   UNL     1      -3.984  -4.399  -0.276  0.00  0.00    +0.135 A 
ATOM     19  N   UNL     1      -4.572  -3.230  -0.299  0.00  0.00    -0.179 NA
ATOM     20  N   UNL     1      -3.707  -2.281  -0.295  0.00  0.00    -0.259 N 
BRANCH  20  21
ATOM     21  C   UNL     1      -4.023  -0.851  -0.311  0.00  0.00    +0.149 C 
BRANCH  21  22
ATOM     22  C   UNL     1      -3.900  -0.317  -1.739  0.00  0.00    +0.058 C 
BRANCH  22  23
ATOM     23  C   UNL     1      -4.225   1.155  -1.755  0.00  0.00    -0.043 A 
ATOM     24  C   UNL     1      -5.526   1.592  -1.952  0.00  0.00    +0.023 A 
ATOM     25  C   UNL     1      -5.786   2.950  -1.960  0.00  0.00    +0.111 A 
ATOM     26  N   UNL     1      -4.814   3.824  -1.785  0.00  0.00    -0.263 NA
ATOM     27  C   UNL     1      -3.566   3.444  -1.596  0.00  0.00    +0.111 A 
ATOM     28  C   UNL     1      -3.231   2.103  -1.569  0.00  0.00    +0.023 A 
ENDBRANCH  22  23
ENDBRANCH  21  22
ENDBRANCH  20  21
ENDBRANCH   2  16
TORSDOF 7
