REMARK  Name = CHEMBL207600
REMARK  3 active torsions:
REMARK  status: ('A' for Active; 'I' for Inactive)
REMARK    1  A    between atoms: C_1  and  N_2
REMARK    2  A    between atoms: C_4  and  C_14
REMARK    3  A    between atoms: C_16  and  C_21
REMARK                            x       y       z     vdW  Elec       q    Type
REMARK                         _______ _______ _______ _____ _____    ______ ____
ROOT
ATOM      1  C   UNL     1       0.039  -3.208  -1.631  0.00  0.00    +0.025 C 
ATOM      2  C   UNL     1      -0.657  -3.152  -2.831  0.00  0.00    +0.068 C 
ATOM      3  C   UNL     1      -0.843  -4.243  -3.806  0.00  0.00    +0.121 C 
ATOM      4  N   UNL     1      -1.560  -3.764  -4.790  0.00  0.00    -0.177 NA
ATOM      5  N   UNL     1      -1.872  -2.425  -4.550  0.00  0.00    -0.202 N 
ATOM      6  C   UNL     1      -1.346  -2.032  -3.374  0.00  0.00    +0.265 C 
ATOM      7  O   UNL     1      -1.440  -0.925  -2.872  0.00  0.00    -0.268 OA
ATOM      8  H   UNL     1      -2.395  -1.861  -5.141  0.00  0.00    +0.178 HD
ENDROOT
BRANCH   1  12
ATOM      9  C   UNL     1       0.969   1.516  -0.485  0.00  0.00    +0.149 C 
ATOM     10  N   UNL     1       0.658   0.092  -0.341  0.00  0.00    -0.349 N 
ATOM     11  C   UNL     1       0.538  -0.772  -1.367  0.00  0.00    +0.094 A 
ATOM     12  C   UNL     1       0.242  -2.033  -0.878  0.00  0.00    +0.001 A 
ATOM     13  C   UNL     1       0.179  -1.898   0.592  0.00  0.00    +0.011 A 
ATOM     14  C   UNL     1       0.453  -0.550   0.866  0.00  0.00    +0.053 A 
ATOM     15  C   UNL     1       0.471  -0.111   2.186  0.00  0.00    +0.076 A 
ATOM     16  C   UNL     1       0.224  -0.999   3.215  0.00  0.00    +0.168 A 
ATOM     17  C   UNL     1      -0.044  -2.342   2.939  0.00  0.00    +0.167 A 
ATOM     18  C   UNL     1      -0.072  -2.788   1.632  0.00  0.00    +0.060 A 
ATOM     19  O   UNL     1      -0.250  -2.997   4.120  0.00  0.00    -0.453 OA
ATOM     20  C   UNL     1       0.297  -2.136   5.137  0.00  0.00    +0.466 C 
ATOM     21  O   UNL     1       0.185  -0.819   4.569  0.00  0.00    -0.453 OA
ENDBRANCH   1  12
BRANCH   3  22
ATOM     22  C   UNL     1      -0.315  -5.623  -3.692  0.00  0.00    +0.109 A 
ATOM     23  C   UNL     1      -0.567  -6.554  -4.701  0.00  0.00    +0.140 A 
ATOM     24  N   UNL     1      -0.095  -7.782  -4.595  0.00  0.00    -0.260 NA
ATOM     25  C   UNL     1       0.616  -8.130  -3.535  0.00  0.00    +0.130 A 
ATOM     26  C   UNL     1       0.868  -7.210  -2.532  0.00  0.00    +0.131 A 
ATOM     27  N   UNL     1       0.404  -5.977  -2.631  0.00  0.00    -0.250 NA
ENDBRANCH   3  22
TORSDOF 2
