REMARK  Name = CHEMBL597596
REMARK  4 active torsions:
REMARK  status: ('A' for Active; 'I' for Inactive)
REMARK    1  A    between atoms: C_1  and  O_2
REMARK    2  A    between atoms: O_2  and  C_3
REMARK    3  A    between atoms: N_19  and  C_20
REMARK    4  A    between atoms: C_23  and  O_27
REMARK                            x       y       z     vdW  Elec       q    Type
REMARK                         _______ _______ _______ _____ _____    ______ ____
ROOT
ATOM      1  C   UNL     1       0.079  -0.096  -1.718  0.00  0.00    +0.122 A 
ATOM      2  C   UNL     1       0.721   0.553  -2.766  0.00  0.00    +0.046 A 
ATOM      3  C   UNL     1       1.448  -0.174  -3.678  0.00  0.00    +0.015 A 
ATOM      4  C   UNL     1       1.552  -1.569  -3.563  0.00  0.00    +0.022 A 
ATOM      5  C   UNL     1       0.914  -2.219  -2.513  0.00  0.00    +0.046 A 
ATOM      6  C   UNL     1       0.180  -1.469  -1.591  0.00  0.00    +0.069 A 
ATOM      7  N   UNL     1       0.964  -3.587  -2.301  0.00  0.00    -0.285 N 
ATOM      8  C   UNL     1       0.867  -4.532  -3.230  0.00  0.00    +0.222 C 
ATOM      9  O   UNL     1       0.884  -5.696  -2.891  0.00  0.00    -0.275 OA
ATOM     10  C   UNL     1       0.736  -4.197  -4.690  0.00  0.00    +0.135 C 
ATOM     11  C   UNL     1       1.983  -3.486  -5.138  0.00  0.00    +0.006 A 
ATOM     12  C   UNL     1       2.350  -2.263  -4.595  0.00  0.00    +0.081 A 
ATOM     13  N   UNL     1       3.478  -1.685  -5.027  0.00  0.00    -0.214 NA
ATOM     14  C   UNL     1       4.220  -2.264  -5.955  0.00  0.00    +0.220 A 
ATOM     15  N   UNL     1       3.884  -3.428  -6.493  0.00  0.00    -0.222 NA
ATOM     16  C   UNL     1       2.784  -4.059  -6.110  0.00  0.00    +0.120 A 
ATOM     17  N   UNL     1       5.380  -1.637  -6.377  0.00  0.00    -0.284 N 
ATOM     18  H   UNL     1       1.082  -3.884  -1.385  0.00  0.00    +0.155 HD
ATOM     19  H   UNL     1       5.682  -0.827  -5.937  0.00  0.00    +0.155 HD
ENDROOT
BRANCH  17  20
ATOM     20  C   UNL     1       6.119  -2.173  -7.439  0.00  0.00    +0.035 A 
ATOM     21  C   UNL     1       5.468  -2.818  -8.482  0.00  0.00    +0.027 A 
ATOM     22  C   UNL     1       6.197  -3.346  -9.530  0.00  0.00    +0.049 A 
ATOM     23  C   UNL     1       7.579  -3.232  -9.541  0.00  0.00    +0.135 A 
ATOM     24  C   UNL     1       8.231  -2.587  -8.499  0.00  0.00    +0.084 A 
ATOM     25  C   UNL     1       7.502  -2.054  -7.453  0.00  0.00    +0.047 A 
ATOM     26 CL   UNL     1       9.961  -2.446  -8.513  0.00  0.00    -0.080 Cl
BRANCH  23  27
ATOM     27  O   UNL     1       8.296  -3.752 -10.573  0.00  0.00    -0.505 OA
ATOM     28  H   UNL     1       8.436  -3.135 -11.305  0.00  0.00    +0.292 HD
ENDBRANCH  23  27
ENDBRANCH  17  20
BRANCH   1  30
ATOM     29  C   UNL     1      -0.703   2.033  -1.008  0.00  0.00    +0.277 C 
ATOM     30  O   UNL     1      -0.642   0.618  -0.816  0.00  0.00    -0.495 OA
ENDBRANCH   1  30
TORSDOF 3
