REMARK  Name = CHEMBL200766
REMARK  11 active torsions:
REMARK  status: ('A' for Active; 'I' for Inactive)
REMARK    1  A    between atoms: C_1  and  O_2
REMARK    2  A    between atoms: O_2  and  C_3
REMARK    3  A    between atoms: C_3  and  C_4
REMARK    4  A    between atoms: C_4  and  O_5
REMARK    5  A    between atoms: O_5  and  C_6
REMARK    6  A    between atoms: C_11  and  O_12
REMARK    7  A    between atoms: O_12  and  C_13
REMARK    8  A    between atoms: C_14  and  N_18
REMARK    9  A    between atoms: C_23  and  O_26
REMARK   10  A    between atoms: O_26  and  C_27
REMARK   11  A    between atoms: C_27  and  C_28
REMARK                            x       y       z     vdW  Elec       q    Type
REMARK                         _______ _______ _______ _____ _____    ______ ____
ROOT
ATOM      1  C   UNL     1      -1.311  -3.647  -1.000  0.00  0.00    +0.164 A 
ATOM      2  C   UNL     1      -0.199  -4.432  -0.887  0.00  0.00    +0.078 A 
ATOM      3  C   UNL     1      -0.336  -5.827  -0.834  0.00  0.00    +0.080 A 
ATOM      4  C   UNL     1      -1.634  -6.404  -0.898  0.00  0.00    +0.048 A 
ATOM      5  C   UNL     1      -2.756  -5.585  -1.013  0.00  0.00    +0.063 A 
ATOM      6  C   UNL     1      -2.594  -4.216  -1.057  0.00  0.00    +0.162 A 
ATOM      7  C   UNL     1      -1.734  -7.865  -0.839  0.00  0.00    +0.164 A 
ATOM      8  N   UNL     1      -0.594  -8.554  -0.729  0.00  0.00    -0.216 NA
ATOM      9  C   UNL     1       0.573  -7.944  -0.675  0.00  0.00    +0.224 A 
ATOM     10  N   UNL     1       0.719  -6.640  -0.724  0.00  0.00    -0.235 NA
ENDROOT
BRANCH   7  11
ATOM     11  N   UNL     1      -2.926  -8.488  -0.893  0.00  0.00    -0.224 NA
ATOM     12  C   UNL     1      -3.537  -8.843   0.223  0.00  0.00    +0.120 C 
ATOM     13  C   UNL     1      -4.727  -9.605   0.185  0.00  0.00    +0.084 C 
ATOM     14  C   UNL     1      -5.351  -9.967   1.335  0.00  0.00    +0.203 C 
ATOM     15  C   UNL     1      -4.856  -9.610   2.607  0.00  0.00    +0.133 C 
ATOM     16  C   UNL     1      -3.721  -8.879   2.749  0.00  0.00    +0.191 C 
ATOM     17  C   UNL     1      -2.986  -8.456   1.550  0.00  0.00    +0.247 C 
ATOM     18  O   UNL     1      -1.962  -7.805   1.639  0.00  0.00    -0.282 OA
ATOM     19 CL   UNL     1      -5.720 -10.117   4.025  0.00  0.00    -0.076 Cl
ATOM     20  O   UNL     1      -6.491 -10.699   1.259  0.00  0.00    -0.286 OA
BRANCH  16  21
ATOM     21  O   UNL     1      -3.267  -8.548   3.986  0.00  0.00    -0.486 OA
BRANCH  21  22
ATOM     22  C   UNL     1      -3.276  -7.161   4.331  0.00  0.00    +0.232 C 
BRANCH  22  23
ATOM     23  C   UNL     1      -2.854  -6.997   5.793  0.00  0.00    +0.027 C 
ATOM     24  C   UNL     1      -3.884  -6.416   6.764  0.00  0.00    +0.007 C 
ATOM     25  C   UNL     1      -2.687  -5.571   6.323  0.00  0.00    +0.007 C 
ENDBRANCH  22  23
ENDBRANCH  21  22
ENDBRANCH  16  21
ENDBRANCH   7  11
BRANCH   6  26
ATOM     26  O   UNL     1      -3.683  -3.412  -1.163  0.00  0.00    -0.491 OA
ATOM     27  C   UNL     1      -4.959  -4.052  -1.217  0.00  0.00    +0.277 C 
ENDBRANCH   6  26
BRANCH   1  28
ATOM     28  O   UNL     1      -1.175  -2.296  -1.051  0.00  0.00    -0.486 OA
BRANCH  28  29
ATOM     29  C   UNL     1       0.154  -1.775  -0.988  0.00  0.00    +0.257 C 
BRANCH  29  30
ATOM     30  C   UNL     1       0.107  -0.248  -1.059  0.00  0.00    +0.200 C 
BRANCH  30  32
ATOM     31  C   UNL     1      -0.652   1.688   0.134  0.00  0.00    +0.194 C 
ATOM     32  O   UNL     1      -0.554   0.263   0.101  0.00  0.00    -0.380 OA
ENDBRANCH  30  32
ENDBRANCH  29  30
ENDBRANCH  28  29
ENDBRANCH   1  28
TORSDOF 9
