REMARK  Name = CHEMBL272250
REMARK  7 active torsions:
REMARK  status: ('A' for Active; 'I' for Inactive)
REMARK    1  A    between atoms: C_1  and  O_2
REMARK    2  A    between atoms: O_2  and  C_3
REMARK    3  A    between atoms: C_8  and  C_9
REMARK    4  A    between atoms: C_12  and  O_16
REMARK    5  A    between atoms: O_16  and  C_17
REMARK    6  A    between atoms: C_26  and  C_27
REMARK    7  A    between atoms: N_29  and  C_30
REMARK                            x       y       z     vdW  Elec       q    Type
REMARK                         _______ _______ _______ _____ _____    ______ ____
ROOT
ATOM      1  C   UNL     1       1.823  -1.518  -0.091  0.00  0.00    +0.134 A 
ATOM      2  C   UNL     1       3.172  -1.468   0.104  0.00  0.00    +0.072 A 
ATOM      3  C   UNL     1       3.740  -2.045   1.252  0.00  0.00    +0.053 A 
ATOM      4  C   UNL     1       2.899  -2.676   2.204  0.00  0.00    +0.042 A 
ATOM      5  C   UNL     1       1.517  -2.720   1.994  0.00  0.00    +0.030 A 
ATOM      6  C   UNL     1       0.980  -2.139   0.855  0.00  0.00    +0.079 A 
ATOM      7  C   UNL     1       3.482  -3.252   3.357  0.00  0.00    +0.139 A 
ATOM      8  C   UNL     1       4.857  -3.171   3.498  0.00  0.00    +0.064 A 
ATOM      9  C   UNL     1       5.612  -2.535   2.521  0.00  0.00    +0.086 A 
ATOM     10  N   UNL     1       5.061  -2.003   1.455  0.00  0.00    -0.360 N 
ATOM     11  H   UNL     1       5.627  -1.569   0.798  0.00  0.00    +0.165 HD
ENDROOT
BRANCH   6  12
ATOM     12  C   UNL     1      -0.477  -2.176   0.628  0.00  0.00    +0.245 C 
ATOM     13  O   UNL     1      -0.949  -1.671  -0.372  0.00  0.00    -0.270 OA
ATOM     14  N   UNL     1      -1.284  -2.768   1.530  0.00  0.00    -0.325 N 
ATOM     15  H   UNL     1      -0.907  -3.171   2.328  0.00  0.00    +0.145 HD
ATOM     16  H   UNL     1      -2.243  -2.792   1.380  0.00  0.00    +0.145 HD
ENDBRANCH   6  12
BRANCH   1  18
ATOM     17  C   UNL     1       2.190  -0.344  -2.124  0.00  0.00    +0.277 C 
ATOM     18  O   UNL     1       1.285  -0.958  -1.204  0.00  0.00    -0.494 OA
ENDBRANCH   1  18
BRANCH   7  19
ATOM     19  O   UNL     1       2.720  -3.866   4.294  0.00  0.00    -0.455 OA
BRANCH  19  20
ATOM     20  C   UNL     1       3.351  -4.484   5.326  0.00  0.00    +0.129 A 
ATOM     21  C   UNL     1       3.893  -3.717   6.362  0.00  0.00    +0.047 A 
ATOM     22  C   UNL     1       4.532  -4.309   7.409  0.00  0.00    +0.013 A 
ATOM     23  C   UNL     1       4.648  -5.705   7.453  0.00  0.00    -0.006 A 
ATOM     24  C   UNL     1       4.100  -6.486   6.407  0.00  0.00    -0.014 A 
ATOM     25  C   UNL     1       3.443  -5.847   5.342  0.00  0.00    +0.054 A 
ATOM     26  C   UNL     1       4.216  -7.886   6.452  0.00  0.00    +0.008 A 
ATOM     27  C   UNL     1       4.853  -8.486   7.497  0.00  0.00    +0.001 A 
ATOM     28  C   UNL     1       5.397  -7.737   8.533  0.00  0.00    +0.013 A 
ATOM     29  C   UNL     1       5.306  -6.353   8.529  0.00  0.00    +0.044 A 
BRANCH  29  30
ATOM     30  C   UNL     1       5.886  -5.564   9.632  0.00  0.00    +0.245 C 
ATOM     31  O   UNL     1       5.706  -4.363   9.680  0.00  0.00    -0.270 OA
ATOM     32  N   UNL     1       6.616  -6.175  10.586  0.00  0.00    -0.308 N 
ATOM     33  H   UNL     1       6.760  -7.134  10.547  0.00  0.00    +0.149 HD
BRANCH  32  34
ATOM     34  C   UNL     1       7.193  -5.392  11.681  0.00  0.00    +0.073 C 
ATOM     35  C   UNL     1       8.638  -5.695  12.082  0.00  0.00    +0.024 C 
ATOM     36  C   UNL     1       7.485  -6.121  12.994  0.00  0.00    +0.024 C 
ENDBRANCH  32  34
ENDBRANCH  29  30
ENDBRANCH  19  20
ENDBRANCH   7  19
TORSDOF 6
