REMARK  Name = CHEMBL333640
REMARK  12 active torsions:
REMARK  status: ('A' for Active; 'I' for Inactive)
REMARK    1  A    between atoms: C_1  and  O_2
REMARK    2  A    between atoms: O_2  and  C_3
REMARK    3  A    between atoms: C_3  and  C_4
REMARK    4  A    between atoms: C_4  and  N_5
REMARK    5  A    between atoms: N_5  and  C_6
REMARK    6  A    between atoms: N_5  and  C_29
REMARK    7  A    between atoms: C_6  and  C_7
REMARK    8  A    between atoms: C_7  and  O_8
REMARK    9  A    between atoms: O_8  and  C_9
REMARK   10  A    between atoms: C_12  and  C_15
REMARK   11  A    between atoms: C_19  and  C_24
REMARK   12  A    between atoms: C_29  and  C_30
REMARK                            x       y       z     vdW  Elec       q    Type
REMARK                         _______ _______ _______ _____ _____    ______ ____
ROOT
ATOM      1  C   UNL     1       3.161  -3.375  -0.764  0.00  0.00    +0.120 A 
ATOM      2  C   UNL     1       2.970  -4.123  -1.918  0.00  0.00    +0.046 A 
ATOM      3  C   UNL     1       3.951  -4.162  -2.887  0.00  0.00    +0.012 A 
ATOM      4  C   UNL     1       5.135  -3.448  -2.706  0.00  0.00    -0.015 A 
ATOM      5  C   UNL     1       5.323  -2.698  -1.547  0.00  0.00    +0.012 A 
ATOM      6  C   UNL     1       4.337  -2.659  -0.584  0.00  0.00    +0.046 A 
ENDROOT
BRANCH   4   7
ATOM      7  C   UNL     1       6.192  -3.488  -3.747  0.00  0.00    +0.018 A 
ATOM      8  C   UNL     1       6.858  -4.698  -4.043  0.00  0.00    +0.123 A 
ATOM      9  N   UNL     1       7.792  -4.726  -4.963  0.00  0.00    -0.235 NA
ATOM     10  C   UNL     1       8.132  -3.621  -5.635  0.00  0.00    +0.163 A 
ATOM     11  C   UNL     1       9.073  -3.381  -6.643  0.00  0.00    +0.046 A 
ATOM     12  C   UNL     1       8.992  -2.025  -6.972  0.00  0.00    +0.145 A 
ATOM     13  N   UNL     1       8.071  -1.461  -6.227  0.00  0.00    -0.173 NA
ATOM     14  N   UNL     1       7.511  -2.424  -5.380  0.00  0.00    -0.221 N 
ATOM     15  C   UNL     1       6.530  -2.356  -4.433  0.00  0.00    +0.124 A 
BRANCH  11  16
ATOM     16  C   UNL     1       9.987  -4.381  -7.249  0.00  0.00    -0.006 A 
ATOM     17  C   UNL     1      10.091  -4.503  -8.631  0.00  0.00    +0.016 A 
ATOM     18  C   UNL     1      10.935  -5.426  -9.146  0.00  0.00    +0.046 A 
ATOM     19  S   UNL     1      11.626  -6.168  -7.677  0.00  0.00    -0.104 S 
ATOM     20  C   UNL     1      10.749  -5.197  -6.463  0.00  0.00    +0.053 A 
ENDBRANCH  11  16
ENDBRANCH   4   7
BRANCH   1  21
ATOM     21  O   UNL     1       2.192  -3.339   0.189  0.00  0.00    -0.494 OA
BRANCH  21  22
ATOM     22  C   UNL     1       1.008  -4.099  -0.061  0.00  0.00    +0.210 C 
BRANCH  22  23
ATOM     23  C   UNL     1       0.041  -3.937   1.113  0.00  0.00    -0.037 C 
BRANCH  23  24
ATOM     24  N   UNL     1      -0.404  -2.539   1.192  0.00  0.00    +0.386 N 
ATOM     25  H   UNL     1       0.401  -1.932   1.246  0.00  0.00    -0.081 HD
BRANCH  24  26
ATOM     26  C   UNL     1      -1.187  -2.206  -0.006  0.00  0.00    -0.050 C 
BRANCH  26  27
ATOM     27  C   UNL     1      -1.525  -0.714   0.004  0.00  0.00    +0.141 C 
BRANCH  27  29
ATOM     28  C   UNL     1      -0.523   1.462  -0.070  0.00  0.00    +0.193 C 
ATOM     29  O   UNL     1      -0.318   0.048  -0.072  0.00  0.00    -0.385 OA
ENDBRANCH  27  29
ENDBRANCH  26  27
ENDBRANCH  24  26
BRANCH  24  30
ATOM     30  C   UNL     1      -1.236  -2.356   2.388  0.00  0.00    -0.043 C 
BRANCH  30  31
ATOM     31  C   UNL     1      -0.395  -2.562   3.622  0.00  0.00    -0.064 A 
ATOM     32  C   UNL     1      -0.370  -3.796   4.243  0.00  0.00    +0.002 A 
ATOM     33  C   UNL     1       0.401  -3.985   5.375  0.00  0.00    +0.000 A 
ATOM     34  C   UNL     1       1.147  -2.939   5.885  0.00  0.00    +0.000 A 
ATOM     35  C   UNL     1       1.123  -1.704   5.263  0.00  0.00    +0.000 A 
ATOM     36  C   UNL     1       0.355  -1.517   4.129  0.00  0.00    +0.002 A 
ENDBRANCH  30  31
ENDBRANCH  24  30
ENDBRANCH  23  24
ENDBRANCH  22  23
ENDBRANCH  21  22
ENDBRANCH   1  21
TORSDOF 11
