REMARK  Name = CHEMBL585205
REMARK  9 active torsions:
REMARK  status: ('A' for Active; 'I' for Inactive)
REMARK    1  A    between atoms: C_1  and  C_2
REMARK    2  A    between atoms: C_2  and  N_3
REMARK    3  A    between atoms: C_5  and  C_8
REMARK    4  A    between atoms: C_13  and  O_17
REMARK    5  A    between atoms: O_17  and  C_18
REMARK    6  A    between atoms: C_21  and  N_25
REMARK    7  A    between atoms: C_26  and  C_28
REMARK    8  A    between atoms: C_28  and  C_29
REMARK    9  A    between atoms: N_31  and  C_32
REMARK                            x       y       z     vdW  Elec       q    Type
REMARK                         _______ _______ _______ _____ _____    ______ ____
ROOT
ATOM      1  C   UNL     1      -1.938  -2.667  -9.985  0.00  0.00    +0.164 A 
ATOM      2  C   UNL     1      -1.010  -3.324 -10.780  0.00  0.00    +0.051 A 
ATOM      3  C   UNL     1      -1.332  -3.668 -12.078  0.00  0.00    +0.027 A 
ATOM      4  C   UNL     1      -2.585  -3.357 -12.589  0.00  0.00    +0.036 A 
ATOM      5  C   UNL     1      -3.514  -2.699 -11.795  0.00  0.00    +0.065 A 
ATOM      6  C   UNL     1      -3.194  -2.360 -10.493  0.00  0.00    +0.167 A 
ATOM      7  F   UNL     1      -4.099  -1.725  -9.717  0.00  0.00    -0.202 F 
ENDROOT
BRANCH   4   8
ATOM      8  N   UNL     1      -2.910  -3.705 -13.906  0.00  0.00    -0.285 N 
ATOM      9  C   UNL     1      -4.175  -4.054 -14.218  0.00  0.00    +0.226 C 
ATOM     10  O   UNL     1      -5.009  -4.154 -13.344  0.00  0.00    -0.275 OA
ATOM     11  H   UNL     1      -2.226  -3.696 -14.594  0.00  0.00    +0.155 HD
BRANCH   9  12
ATOM     12  C   UNL     1      -4.551  -4.318 -15.653  0.00  0.00    +0.191 C 
BRANCH  12  13
ATOM     13  C   UNL     1      -6.010  -4.687 -15.730  0.00  0.00    +0.222 C 
ATOM     14  O   UNL     1      -6.679  -4.730 -14.719  0.00  0.00    -0.275 OA
ATOM     15  N   UNL     1      -6.572  -4.968 -16.922  0.00  0.00    -0.312 N 
ATOM     16  H   UNL     1      -6.038  -4.933 -17.731  0.00  0.00    +0.149 HD
BRANCH  15  17
ATOM     17  C   UNL     1      -7.991  -5.326 -16.997  0.00  0.00    +0.073 C 
ATOM     18  C   UNL     1      -8.153  -6.824 -16.732  0.00  0.00    +0.022 C 
ATOM     19  C   UNL     1      -9.635  -7.199 -16.810  0.00  0.00    +0.002 C 
ATOM     20  C   UNL     1     -10.172  -6.866 -18.203  0.00  0.00    +0.000 C 
ATOM     21  C   UNL     1     -10.010  -5.367 -18.468  0.00  0.00    +0.002 C 
ATOM     22  C   UNL     1      -8.528  -4.993 -18.390  0.00  0.00    +0.022 C 
ENDBRANCH  15  17
ENDBRANCH  12  13
ENDBRANCH   9  12
ENDBRANCH   4   8
BRANCH   1  23
ATOM     23  O   UNL     1      -1.620  -2.329  -8.707  0.00  0.00    -0.452 OA
BRANCH  23  29
ATOM     24  C   UNL     1      -0.792  -2.319  -3.917  0.00  0.00    +0.042 A 
ATOM     25  C   UNL     1      -1.541  -3.441  -4.074  0.00  0.00    +0.046 A 
ATOM     26  C   UNL     1      -1.997  -3.809  -5.354  0.00  0.00    +0.082 A 
ATOM     27  C   UNL     1      -1.618  -2.942  -6.402  0.00  0.00    +0.080 A 
ATOM     28  S   UNL     1      -0.676  -1.683  -5.581  0.00  0.00    -0.081 S 
ATOM     29  C   UNL     1      -1.993  -3.174  -7.712  0.00  0.00    +0.146 A 
ATOM     30  C   UNL     1      -2.765  -4.303  -7.980  0.00  0.00    +0.067 A 
ATOM     31  C   UNL     1      -3.115  -5.127  -6.925  0.00  0.00    +0.115 A 
ATOM     32  N   UNL     1      -2.746  -4.883  -5.692  0.00  0.00    -0.254 NA
BRANCH  24  35
ATOM     33  N   UNL     1       0.841  -0.480  -1.251  0.00  0.00    -0.336 N 
ATOM     34  C   UNL     1       0.522  -0.622  -2.572  0.00  0.00    +0.115 A 
ATOM     35  C   UNL     1      -0.220  -1.759  -2.674  0.00  0.00    +0.095 A 
ATOM     36  N   UNL     1      -0.339  -2.282  -1.436  0.00  0.00    -0.235 NA
ATOM     37  C   UNL     1       0.297  -1.524  -0.588  0.00  0.00    +0.200 A 
BRANCH  33  39
ATOM     38  C   UNL     1       3.113   0.215  -0.672  0.00  0.00    +0.027 C 
ATOM     39  C   UNL     1       1.633   0.603  -0.663  0.00  0.00    +0.119 C 
ENDBRANCH  33  39
ENDBRANCH  24  35
ENDBRANCH  23  29
ENDBRANCH   1  23
TORSDOF 8
