REMARK  Name = CHEMBL459896
REMARK  10 active torsions:
REMARK  status: ('A' for Active; 'I' for Inactive)
REMARK    1  A    between atoms: C_1  and  O_2
REMARK    2  A    between atoms: O_2  and  C_3
REMARK    3  A    between atoms: C_8  and  N_9
REMARK    4  A    between atoms: N_9  and  C_10
REMARK    5  A    between atoms: C_18  and  O_20
REMARK    6  A    between atoms: O_20  and  C_21
REMARK    7  A    between atoms: C_28  and  O_33
REMARK    8  A    between atoms: C_29  and  O_31
REMARK    9  A    between atoms: O_31  and  C_32
REMARK   10  A    between atoms: O_33  and  C_34
REMARK                            x       y       z     vdW  Elec       q    Type
REMARK                         _______ _______ _______ _____ _____    ______ ____
ROOT
ATOM      1  C   UNL     1       0.105  -4.651  -0.660  0.00  0.00    +0.039 A 
ATOM      2  C   UNL     1       0.315  -5.277  -1.872  0.00  0.00    +0.024 A 
ATOM      3  C   UNL     1      -0.100  -6.589  -2.075  0.00  0.00    +0.002 A 
ATOM      4  C   UNL     1      -0.723  -7.291  -1.088  0.00  0.00    +0.009 A 
ATOM      5  C   UNL     1      -0.956  -6.690   0.161  0.00  0.00    -0.013 A 
ATOM      6  C   UNL     1      -0.533  -5.356   0.383  0.00  0.00    +0.003 A 
ATOM      7  C   UNL     1      -0.761  -4.757   1.632  0.00  0.00    +0.014 A 
ATOM      8  C   UNL     1      -1.379  -5.464   2.617  0.00  0.00    +0.047 A 
ATOM      9  C   UNL     1      -1.792  -6.782   2.404  0.00  0.00    +0.129 A 
ATOM     10  C   UNL     1      -1.596  -7.391   1.196  0.00  0.00    +0.054 A 
ENDROOT
BRANCH   1  11
ATOM     11  N   UNL     1       0.524  -3.337  -0.467  0.00  0.00    -0.311 N 
ATOM     12  H   UNL     1       0.282  -2.865   0.345  0.00  0.00    +0.152 HD
BRANCH  11  18
ATOM     13  C   UNL     1       1.007  -1.385  -1.813  0.00  0.00    +0.141 A 
ATOM     14  C   UNL     1       1.778  -0.755  -2.776  0.00  0.00    +0.047 A 
ATOM     15  C   UNL     1       2.827  -1.430  -3.373  0.00  0.00    +0.004 A 
ATOM     16  C   UNL     1       3.111  -2.734  -3.011  0.00  0.00    +0.002 A 
ATOM     17  C   UNL     1       2.347  -3.370  -2.051  0.00  0.00    +0.027 A 
ATOM     18  C   UNL     1       1.296  -2.697  -1.444  0.00  0.00    +0.074 A 
BRANCH  13  20
ATOM     19  C   UNL     1      -0.263   0.619  -1.655  0.00  0.00    +0.277 C 
ATOM     20  O   UNL     1      -0.025  -0.723  -1.226  0.00  0.00    -0.493 OA
ENDBRANCH  13  20
ENDBRANCH  11  18
ENDBRANCH   1  11
BRANCH   9  21
ATOM     21  O   UNL     1      -2.406  -7.463   3.406  0.00  0.00    -0.455 OA
BRANCH  21  22
ATOM     22  C   UNL     1      -1.629  -8.158   4.273  0.00  0.00    +0.139 A 
ATOM     23  C   UNL     1      -0.248  -8.135   4.170  0.00  0.00    +0.064 A 
ATOM     24  C   UNL     1       0.521  -8.857   5.072  0.00  0.00    +0.086 A 
ATOM     25  N   UNL     1      -0.022  -9.569   6.032  0.00  0.00    -0.360 N 
ATOM     26  C   UNL     1      -1.349  -9.636   6.190  0.00  0.00    +0.054 A 
ATOM     27  C   UNL     1      -2.202  -8.922   5.313  0.00  0.00    +0.044 A 
ATOM     28  C   UNL     1      -3.594  -8.990   5.485  0.00  0.00    +0.063 A 
ATOM     29  C   UNL     1      -4.113  -9.739   6.501  0.00  0.00    +0.162 A 
ATOM     30  C   UNL     1      -3.270 -10.442   7.375  0.00  0.00    +0.163 A 
ATOM     31  C   UNL     1      -1.914 -10.404   7.222  0.00  0.00    +0.075 A 
ATOM     32  H   UNL     1       0.552 -10.059   6.641  0.00  0.00    +0.165 HD
BRANCH  30  33
ATOM     33  O   UNL     1      -3.811 -11.180   8.379  0.00  0.00    -0.491 OA
ATOM     34  C   UNL     1      -2.903 -11.873   9.237  0.00  0.00    +0.277 C 
ENDBRANCH  30  33
BRANCH  29  35
ATOM     35  O   UNL     1      -5.461  -9.805   6.668  0.00  0.00    -0.491 OA
ATOM     36  C   UNL     1      -6.265  -9.067   5.746  0.00  0.00    +0.277 C 
ENDBRANCH  29  35
ENDBRANCH  21  22
ENDBRANCH   9  21
TORSDOF 7
