REMARK  Name = CHEMBL230107
REMARK  10 active torsions:
REMARK  status: ('A' for Active; 'I' for Inactive)
REMARK    1  A    between atoms: C_1  and  N_2
REMARK    2  A    between atoms: N_5  and  C_8
REMARK    3  A    between atoms: C_8  and  C_9
REMARK    4  A    between atoms: C_11  and  N_16
REMARK    5  A    between atoms: C_21  and  O_26
REMARK    6  A    between atoms: O_26  and  C_27
REMARK    7  A    between atoms: C_34  and  O_39
REMARK    8  A    between atoms: C_35  and  O_37
REMARK    9  A    between atoms: O_37  and  C_38
REMARK   10  A    between atoms: O_39  and  C_40
REMARK                            x       y       z     vdW  Elec       q    Type
REMARK                         _______ _______ _______ _____ _____    ______ ____
ROOT
ATOM      1  N   UNL     1      -2.862  -5.870   5.733  0.00  0.00    -0.269 N 
ATOM      2  C   UNL     1      -2.313  -6.208   6.951  0.00  0.00    +0.293 A 
ATOM      3  N   UNL     1      -2.988  -6.649   7.981  0.00  0.00    -0.195 NA
ATOM      4  C   UNL     1      -2.121  -6.879   9.005  0.00  0.00    +0.115 A 
ATOM      5  C   UNL     1      -2.277  -7.344  10.312  0.00  0.00    +0.078 A 
ATOM      6  C   UNL     1      -1.170  -7.471  11.130  0.00  0.00    +0.131 A 
ATOM      7  C   UNL     1       0.095  -7.138  10.655  0.00  0.00    +0.050 A 
ATOM      8  C   UNL     1       0.257  -6.678   9.364  0.00  0.00    +0.052 A 
ATOM      9  C   UNL     1      -0.843  -6.546   8.533  0.00  0.00    +0.157 A 
ATOM     10  O   UNL     1      -1.004  -6.139   7.252  0.00  0.00    -0.424 OA
ATOM     11  H   UNL     1      -3.825  -5.872   5.618  0.00  0.00    +0.157 HD
ENDROOT
BRANCH   1  14
ATOM     12  C   UNL     1      -1.655  -4.298   2.636  0.00  0.00    -0.013 A 
ATOM     13  C   UNL     1      -2.479  -4.639   3.691  0.00  0.00    +0.029 A 
ATOM     14  C   UNL     1      -2.030  -5.524   4.663  0.00  0.00    +0.035 A 
ATOM     15  C   UNL     1      -0.753  -6.064   4.571  0.00  0.00    +0.025 A 
ATOM     16  C   UNL     1       0.066  -5.720   3.514  0.00  0.00    +0.022 A 
ATOM     17  C   UNL     1      -0.387  -4.842   2.543  0.00  0.00    +0.045 A 
ATOM     18 CL   UNL     1       0.643  -4.417   1.212  0.00  0.00    -0.083 Cl
BRANCH  12  19
ATOM     19  C   UNL     1      -2.142  -3.338   1.581  0.00  0.00    +0.121 C 
BRANCH  19  24
ATOM     20  C   UNL     1      -4.157  -5.510  -3.211  0.00  0.00    -0.096 C 
ATOM     21  N   UNL     1      -3.944  -4.751  -1.972  0.00  0.00    +0.379 N 
ATOM     22  C   UNL     1      -2.716  -3.955  -2.090  0.00  0.00    -0.064 C 
ATOM     23  C   UNL     1      -2.503  -3.150  -0.806  0.00  0.00    +0.066 C 
ATOM     24  N   UNL     1      -2.403  -4.071   0.335  0.00  0.00    -0.302 NA
ATOM     25  C   UNL     1      -3.616  -4.892   0.452  0.00  0.00    +0.066 C 
ATOM     26  C   UNL     1      -3.820  -5.683  -0.843  0.00  0.00    -0.064 C 
ATOM     27  H   UNL     1      -4.729  -4.136  -1.815  0.00  0.00    -0.082 HD
ENDBRANCH  19  24
ENDBRANCH  12  19
ENDBRANCH   1  14
BRANCH   6  28
ATOM     28  O   UNL     1      -1.317  -7.923  12.403  0.00  0.00    -0.455 OA
BRANCH  28  29
ATOM     29  C   UNL     1      -1.324  -7.010  13.406  0.00  0.00    +0.139 A 
ATOM     30  C   UNL     1      -1.079  -5.672  13.154  0.00  0.00    +0.064 A 
ATOM     31  C   UNL     1      -1.092  -4.760  14.201  0.00  0.00    +0.086 A 
ATOM     32  N   UNL     1      -1.332  -5.129  15.437  0.00  0.00    -0.360 N 
ATOM     33  C   UNL     1      -1.577  -6.406  15.753  0.00  0.00    +0.054 A 
ATOM     34  C   UNL     1      -1.587  -7.395  14.739  0.00  0.00    +0.044 A 
ATOM     35  C   UNL     1      -1.850  -8.733  15.073  0.00  0.00    +0.063 A 
ATOM     36  C   UNL     1      -2.100  -9.069  16.372  0.00  0.00    +0.162 A 
ATOM     37  C   UNL     1      -2.097  -8.091  17.377  0.00  0.00    +0.163 A 
ATOM     38  C   UNL     1      -1.831  -6.785  17.082  0.00  0.00    +0.075 A 
ATOM     39  H   UNL     1      -1.332  -4.460  16.140  0.00  0.00    +0.165 HD
BRANCH  37  40
ATOM     40  O   UNL     1      -2.349  -8.450  18.663  0.00  0.00    -0.491 OA
ATOM     41  C   UNL     1      -2.332  -7.410  19.642  0.00  0.00    +0.277 C 
ENDBRANCH  37  40
BRANCH  36  42
ATOM     42  O   UNL     1      -2.354 -10.365  16.695  0.00  0.00    -0.491 OA
ATOM     43  C   UNL     1      -2.344 -11.314  15.626  0.00  0.00    +0.277 C 
ENDBRANCH  36  42
ENDBRANCH  28  29
ENDBRANCH   6  28
TORSDOF 7
