REMARK  Name = CHEMBL200765
REMARK  11 active torsions:
REMARK  status: ('A' for Active; 'I' for Inactive)
REMARK    1  A    between atoms: C_1  and  C_2
REMARK    2  A    between atoms: C_2  and  O_3
REMARK    3  A    between atoms: O_3  and  C_4
REMARK    4  A    between atoms: N_12  and  C_13
REMARK    5  A    between atoms: C_16  and  O_28
REMARK    6  A    between atoms: C_17  and  O_23
REMARK    7  A    between atoms: O_23  and  C_24
REMARK    8  A    between atoms: C_24  and  C_25
REMARK    9  A    between atoms: C_25  and  O_26
REMARK   10  A    between atoms: O_26  and  C_27
REMARK   11  A    between atoms: O_28  and  C_29
REMARK                            x       y       z     vdW  Elec       q    Type
REMARK                         _______ _______ _______ _____ _____    ______ ____
ROOT
ATOM      1  C   UNL     1      -1.520  -6.720   1.119  0.00  0.00    +0.164 A 
ATOM      2  C   UNL     1      -1.861  -7.874   1.870  0.00  0.00    +0.048 A 
ATOM      3  C   UNL     1      -3.189  -8.211   2.151  0.00  0.00    +0.063 A 
ATOM      4  C   UNL     1      -3.459  -9.336   2.879  0.00  0.00    +0.162 A 
ATOM      5  C   UNL     1      -2.420 -10.155   3.348  0.00  0.00    +0.164 A 
ATOM      6  C   UNL     1      -1.114  -9.848   3.087  0.00  0.00    +0.078 A 
ATOM      7  C   UNL     1      -0.808  -8.700   2.342  0.00  0.00    +0.080 A 
ATOM      8  N   UNL     1       0.455  -8.357   2.060  0.00  0.00    -0.235 NA
ATOM      9  C   UNL     1       0.712  -7.276   1.360  0.00  0.00    +0.224 A 
ATOM     10  N   UNL     1      -0.231  -6.478   0.893  0.00  0.00    -0.216 NA
ENDROOT
BRANCH   1  19
ATOM     11  C   UNL     1      -4.632  -3.959   3.478  0.00  0.00    +0.185 C 
ATOM     12  C   UNL     1      -3.344  -4.250   3.795  0.00  0.00    +0.134 C 
ATOM     13  C   UNL     1      -2.395  -4.638   2.738  0.00  0.00    +0.222 C 
ATOM     14  O   UNL     1      -1.200  -4.713   2.956  0.00  0.00    -0.284 OA
ATOM     15  C   UNL     1      -2.958  -4.936   1.392  0.00  0.00    +0.099 C 
ATOM     16  C   UNL     1      -4.120  -4.061   0.952  0.00  0.00    +0.142 C 
ATOM     17  C   UNL     1      -5.120  -4.052   2.091  0.00  0.00    +0.205 C 
ATOM     18  O   UNL     1      -6.309  -4.118   1.864  0.00  0.00    -0.288 OA
ATOM     19  N   UNL     1      -2.483  -5.887   0.638  0.00  0.00    -0.228 NA
ATOM     20 CL   UNL     1      -2.817  -4.163   5.446  0.00  0.00    -0.076 Cl
BRANCH  11  21
ATOM     21  O   UNL     1      -5.487  -3.581   4.457  0.00  0.00    -0.487 OA
BRANCH  21  23
ATOM     22  C   UNL     1      -7.020  -2.038   5.511  0.00  0.00    +0.048 C 
ATOM     23  C   UNL     1      -5.984  -2.242   4.403  0.00  0.00    +0.226 C 
ENDBRANCH  21  23
ENDBRANCH  11  21
ENDBRANCH   1  19
BRANCH   4  24
ATOM     24  O   UNL     1      -4.749  -9.665   3.152  0.00  0.00    -0.491 OA
ATOM     25  C   UNL     1      -5.762  -8.792   2.648  0.00  0.00    +0.277 C 
ENDBRANCH   4  24
BRANCH   5  26
ATOM     26  O   UNL     1      -2.716 -11.267   4.070  0.00  0.00    -0.486 OA
BRANCH  26  27
ATOM     27  C   UNL     1      -1.616 -12.060   4.520  0.00  0.00    +0.257 C 
BRANCH  27  28
ATOM     28  C   UNL     1      -2.142 -13.260   5.310  0.00  0.00    +0.200 C 
BRANCH  28  29
ATOM     29  O   UNL     1      -2.892 -14.111   4.441  0.00  0.00    -0.380 OA
ATOM     30  C   UNL     1      -3.431 -15.268   5.083  0.00  0.00    +0.194 C 
ENDBRANCH  28  29
ENDBRANCH  27  28
ENDBRANCH  26  27
ENDBRANCH   5  26
TORSDOF 8
