REMARK  Name = CHEMBL204446
REMARK  5 active torsions:
REMARK  status: ('A' for Active; 'I' for Inactive)
REMARK    1  A    between atoms: C_2  and  N_21
REMARK    2  A    between atoms: N_10  and  C_13
REMARK    3  A    between atoms: C_13  and  C_14
REMARK    4  A    between atoms: C_14  and  N_15
REMARK    5  A    between atoms: C_25  and  C_27
REMARK                            x       y       z     vdW  Elec       q    Type
REMARK                         _______ _______ _______ _____ _____    ______ ____
ROOT
ATOM      1  C   UNL     1      -2.466   1.237   0.031  0.00  0.00    +0.085 A 
ATOM      2  C   UNL     1      -2.316  -0.146   0.021  0.00  0.00    +0.129 A 
ATOM      3  N   UNL     1      -1.088  -0.663   0.028  0.00  0.00    -0.222 NA
ATOM      4  C   UNL     1      -0.027   0.116   0.044  0.00  0.00    +0.199 A 
ATOM      5  N   UNL     1      -0.127   1.430   0.054  0.00  0.00    -0.334 N 
ATOM      6  C   UNL     1      -1.319   2.025   0.042  0.00  0.00    +0.103 A 
ATOM      7  N   UNL     1      -1.415   3.407   0.051  0.00  0.00    -0.320 N 
ATOM      8  C   UNL     1      -0.215   4.250  -0.073  0.00  0.00    +0.088 C 
ATOM      9  C   UNL     1      -0.463   5.287  -1.174  0.00  0.00    -0.060 C 
ATOM     10  N   UNL     1      -1.696   6.027  -0.880  0.00  0.00    +0.383 N 
ATOM     11  C   UNL     1      -2.848   5.119  -0.927  0.00  0.00    -0.060 C 
ATOM     12  C   UNL     1      -2.720   4.074   0.181  0.00  0.00    +0.088 C 
ATOM     13  H   UNL     1       0.678   1.972   0.066  0.00  0.00    +0.168 HD
ATOM     14  H   UNL     1      -1.629   6.437   0.040  0.00  0.00    -0.082 HD
ENDROOT
BRANCH   2  15
ATOM     15  N   UNL     1      -3.429  -0.976   0.004  0.00  0.00    -0.279 N 
ATOM     16  C   UNL     1      -3.270  -2.343  -0.112  0.00  0.00    +0.165 A 
ATOM     17  N   UNL     1      -2.147  -3.037  -0.122  0.00  0.00    -0.232 NA
ATOM     18  C   UNL     1      -2.150  -4.343  -0.240  0.00  0.00    +0.139 A 
ATOM     19  C   UNL     1      -3.393  -4.948  -0.353  0.00  0.00    +0.110 A 
ATOM     20  S   UNL     1      -4.463  -3.521  -0.267  0.00  0.00    -0.042 S 
ATOM     21  H   UNL     1      -4.319  -0.595   0.074  0.00  0.00    +0.155 HD
BRANCH  19  22
ATOM     22  C   UNL     1      -3.726  -6.333  -0.494  0.00  0.00    +0.108 C 
ATOM     23  N   UNL     1      -3.990  -7.433  -0.606  0.00  0.00    -0.190 NA
ENDBRANCH  19  22
ENDBRANCH   2  15
BRANCH  10  24
ATOM     24  C   UNL     1      -1.874   7.093  -1.875  0.00  0.00    -0.063 C 
BRANCH  24  25
ATOM     25  C   UNL     1      -3.089   7.944  -1.499  0.00  0.00    +0.066 C 
BRANCH  25  26
ATOM     26  N   UNL     1      -3.267   9.010  -2.494  0.00  0.00    -0.300 NA
ATOM     27  C   UNL     1      -2.151   9.966  -2.447  0.00  0.00    +0.112 C 
ATOM     28  C   UNL     1      -2.346  11.023  -3.537  0.00  0.00    +0.175 C 
ATOM     29  O   UNL     1      -3.613  11.661  -3.354  0.00  0.00    -0.377 OA
ATOM     30  C   UNL     1      -4.723  10.759  -3.395  0.00  0.00    +0.175 C 
ATOM     31  C   UNL     1      -4.552   9.699  -2.304  0.00  0.00    +0.112 C 
ENDBRANCH  25  26
ENDBRANCH  24  25
ENDBRANCH  10  24
TORSDOF 5
