REMARK  Name = CHEMBL99832
REMARK  4 active torsions:
REMARK  status: ('A' for Active; 'I' for Inactive)
REMARK    1  A    between atoms: C_1  and  O_2
REMARK    2  A    between atoms: O_2  and  C_3
REMARK    3  A    between atoms: C_7  and  N_9
REMARK    4  A    between atoms: C_13  and  C_15
REMARK                            x       y       z     vdW  Elec       q    Type
REMARK                         _______ _______ _______ _____ _____    ______ ____
ROOT
ATOM      1  N   UNL     1       2.350   0.358   4.015  0.00  0.00    -0.279 N 
ATOM      2  C   UNL     1       2.905  -0.217   5.146  0.00  0.00    +0.164 A 
ATOM      3  N   UNL     1       3.076  -1.496   5.412  0.00  0.00    -0.232 NA
ATOM      4  C   UNL     1       3.625  -1.892   6.542  0.00  0.00    +0.129 A 
ATOM      5  C   UNL     1       4.005  -0.911   7.419  0.00  0.00    +0.041 A 
ATOM      6  S   UNL     1       3.530   0.550   6.508  0.00  0.00    -0.052 S 
ATOM      7  H   UNL     1       2.351   1.323   3.912  0.00  0.00    +0.155 HD
ENDROOT
BRANCH   1  12
ATOM      8  C   UNL     1       1.369  -2.566   2.207  0.00  0.00    +0.216 A 
ATOM      9  C   UNL     1       0.707  -2.046   1.104  0.00  0.00    +0.067 A 
ATOM     10  C   UNL     1       0.590  -0.671   0.970  0.00  0.00    +0.009 A 
ATOM     11  C   UNL     1       1.142   0.139   1.948  0.00  0.00    +0.044 A 
ATOM     12  C   UNL     1       1.792  -0.447   3.027  0.00  0.00    +0.128 A 
ATOM     13  N   UNL     1       1.881  -1.765   3.128  0.00  0.00    -0.198 NA
BRANCH   8  15
ATOM     14  C   UNL     1       2.176  -4.384   3.506  0.00  0.00    +0.279 C 
ATOM     15  O   UNL     1       1.488  -3.910   2.346  0.00  0.00    -0.480 OA
ENDBRANCH   8  15
ENDBRANCH   1  12
BRANCH   5  16
ATOM     16  C   UNL     1       4.638  -1.029   8.749  0.00  0.00    -0.010 A 
ATOM     17  C   UNL     1       4.936  -2.287   9.275  0.00  0.00    +0.009 A 
ATOM     18  C   UNL     1       5.527  -2.390  10.517  0.00  0.00    +0.001 A 
ATOM     19  C   UNL     1       5.824  -1.249  11.242  0.00  0.00    +0.000 A 
ATOM     20  C   UNL     1       5.530   0.001  10.727  0.00  0.00    +0.001 A 
ATOM     21  C   UNL     1       4.944   0.118   9.483  0.00  0.00    +0.009 A 
ENDBRANCH   5  16
TORSDOF 3
