REMARK  Name = CHEMBL347537
REMARK  6 active torsions:
REMARK  status: ('A' for Active; 'I' for Inactive)
REMARK    1  A    between atoms: C_10  and  C_11
REMARK    2  A    between atoms: C_15  and  N_17
REMARK    3  A    between atoms: C_18  and  C_20
REMARK    4  A    between atoms: C_25  and  N_26
REMARK    5  A    between atoms: N_26  and  C_27
REMARK    6  A    between atoms: C_27  and  C_28
REMARK                            x       y       z     vdW  Elec       q    Type
REMARK                         _______ _______ _______ _____ _____    ______ ____
ROOT
ATOM      1  N   UNL     1       8.135   0.164   1.846  0.00  0.00    -0.281 N 
ATOM      2  C   UNL     1       9.354   0.726   1.733  0.00  0.00    +0.250 C 
ATOM      3  O   UNL     1       9.543   1.611   0.921  0.00  0.00    -0.270 OA
ATOM      4  H   UNL     1       7.964  -0.488   2.543  0.00  0.00    +0.155 HD
ENDROOT
BRANCH   1   9
ATOM      5  C   UNL     1       6.405   1.203  -1.237  0.00  0.00    -0.014 A 
ATOM      6  C   UNL     1       5.082   1.225  -0.796  0.00  0.00    +0.009 A 
ATOM      7  C   UNL     1       4.785   0.897   0.511  0.00  0.00    +0.002 A 
ATOM      8  C   UNL     1       5.795   0.545   1.387  0.00  0.00    +0.023 A 
ATOM      9  C   UNL     1       7.116   0.520   0.956  0.00  0.00    +0.034 A 
ATOM     10  C   UNL     1       7.423   0.844  -0.357  0.00  0.00    +0.032 A 
BRANCH   5  20
ATOM     11  C   UNL     1       4.710  -0.145  -5.890  0.00  0.00    +0.001 A 
ATOM     12  C   UNL     1       4.364  -0.515  -4.592  0.00  0.00    +0.001 A 
ATOM     13  C   UNL     1       5.005   0.023  -3.515  0.00  0.00    +0.009 A 
ATOM     14  C   UNL     1       6.024   0.961  -3.717  0.00  0.00    -0.007 A 
ATOM     15  C   UNL     1       6.378   1.339  -5.037  0.00  0.00    +0.001 A 
ATOM     16  C   UNL     1       5.697   0.764  -6.123  0.00  0.00    +0.010 A 
ATOM     17  C   UNL     1       7.404   2.280  -5.218  0.00  0.00    +0.119 A 
ATOM     18  N   UNL     1       8.020   2.797  -4.180  0.00  0.00    -0.262 NA
ATOM     19  C   UNL     1       7.721   2.473  -2.932  0.00  0.00    +0.119 A 
ATOM     20  C   UNL     1       6.726   1.555  -2.640  0.00  0.00    +0.008 A 
ENDBRANCH   5  20
ENDBRANCH   1   9
BRANCH   2  21
ATOM     21  C   UNL     1      10.459   0.269   2.595  0.00  0.00    +0.058 A 
ATOM     22  C   UNL     1      10.281  -0.827   3.444  0.00  0.00    +0.015 A 
ATOM     23  C   UNL     1      11.318  -1.250   4.247  0.00  0.00    +0.001 A 
ATOM     24  C   UNL     1      12.539  -0.594   4.218  0.00  0.00    +0.002 A 
ATOM     25  C   UNL     1      12.730   0.489   3.386  0.00  0.00    +0.024 A 
ATOM     26  C   UNL     1      11.698   0.927   2.565  0.00  0.00    +0.040 A 
BRANCH  26  27
ATOM     27  N   UNL     1      11.890   2.014   1.722  0.00  0.00    -0.339 N 
ATOM     28  H   UNL     1      11.202   2.262   1.085  0.00  0.00    +0.146 HD
BRANCH  27  29
ATOM     29  C   UNL     1      13.133   2.787   1.795  0.00  0.00    +0.137 C 
BRANCH  29  30
ATOM     30  C   UNL     1      13.090   3.904   0.783  0.00  0.00    -0.028 A 
ATOM     31  C   UNL     1      13.558   3.710  -0.507  0.00  0.00    +0.025 A 
ATOM     32  C   UNL     1      13.503   4.758  -1.408  0.00  0.00    +0.111 A 
ATOM     33  N   UNL     1      13.012   5.928  -1.051  0.00  0.00    -0.263 NA
ATOM     34  C   UNL     1      12.558   6.148   0.167  0.00  0.00    +0.111 A 
ATOM     35  C   UNL     1      12.575   5.147   1.119  0.00  0.00    +0.025 A 
ENDBRANCH  29  30
ENDBRANCH  27  29
ENDBRANCH  26  27
ENDBRANCH   2  21
TORSDOF 6
