REMARK  Name = CHEMBL222076
REMARK  10 active torsions:
REMARK  status: ('A' for Active; 'I' for Inactive)
REMARK    1  A    between atoms: C_1  and  C_2
REMARK    2  A    between atoms: C_10  and  O_13
REMARK    3  A    between atoms: O_13  and  C_14
REMARK    4  A    between atoms: C_15  and  C_21
REMARK    5  A    between atoms: C_16  and  N_20
REMARK    6  A    between atoms: N_22  and  O_23
REMARK    7  A    between atoms: O_23  and  C_24
REMARK    8  A    between atoms: C_24  and  C_25
REMARK    9  A    between atoms: C_25  and  C_26
REMARK   10  A    between atoms: C_26  and  O_27
REMARK                            x       y       z     vdW  Elec       q    Type
REMARK                         _______ _______ _______ _____ _____    ______ ____
ROOT
ATOM      1  C   UNL     1       0.194  -6.880  -0.464  0.00  0.00    +0.234 A 
ATOM      2  C   UNL     1       0.335  -8.133  -1.084  0.00  0.00    +0.097 A 
ATOM      3  C   UNL     1       0.466  -9.266  -0.260  0.00  0.00    +0.132 A 
ATOM      4  N   UNL     1       0.452  -9.103   1.060  0.00  0.00    -0.220 NA
ATOM      5  C   UNL     1       0.318  -7.907   1.595  0.00  0.00    +0.227 A 
ATOM      6  N   UNL     1       0.197  -6.817   0.863  0.00  0.00    -0.200 NA
ENDROOT
BRANCH   3   7
ATOM      7  N   UNL     1       0.607 -10.525  -0.812  0.00  0.00    -0.342 N 
ATOM      8  H   UNL     1       0.541 -10.643  -1.773  0.00  0.00    +0.144 HD
ATOM      9  H   UNL     1       0.771 -11.290  -0.239  0.00  0.00    +0.144 HD
ENDBRANCH   3   7
BRANCH   2  10
ATOM     10  C   UNL     1       0.343  -8.256  -2.551  0.00  0.00    +0.169 C 
ATOM     11  N   UNL     1       0.326  -7.193  -3.291  0.00  0.00    -0.092 NA
BRANCH  11  12
ATOM     12  O   UNL     1       0.334  -7.312  -4.702  0.00  0.00    -0.394 OA
BRANCH  12  13
ATOM     13  C   UNL     1       0.312  -6.061  -5.391  0.00  0.00    +0.265 C 
BRANCH  13  14
ATOM     14  C   UNL     1       0.323  -6.309  -6.901  0.00  0.00    +0.071 C 
BRANCH  14  15
ATOM     15  C   UNL     1       0.300  -4.969  -7.638  0.00  0.00    +0.159 C 
BRANCH  15  16
ATOM     16  O   UNL     1       0.311  -5.201  -9.049  0.00  0.00    -0.395 OA
ATOM     17  H   UNL     1       0.297  -4.394  -9.580  0.00  0.00    +0.209 HD
ENDBRANCH  15  16
ENDBRANCH  14  15
ENDBRANCH  13  14
ENDBRANCH  12  13
ENDBRANCH  11  12
ENDBRANCH   2  10
BRANCH   1  18
ATOM     18  O   UNL     1       0.064  -5.755  -1.206  0.00  0.00    -0.434 OA
BRANCH  18  28
ATOM     19  C   UNL     1       2.222   0.364   2.297  0.00  0.00    +0.063 C 
ATOM     20  C   UNL     1       1.554  -0.800   1.612  0.00  0.00    +0.014 A 
ATOM     21  C   UNL     1       2.195  -1.852   1.081  0.00  0.00    +0.033 A 
ATOM     22  C   UNL     1       1.172  -2.740   0.522  0.00  0.00    +0.039 A 
ATOM     23  C   UNL     1      -0.064  -2.119   0.775  0.00  0.00    +0.050 A 
ATOM     24  N   UNL     1       0.203  -0.943   1.445  0.00  0.00    -0.358 N 
ATOM     25  H   UNL     1      -0.467  -0.311   1.750  0.00  0.00    +0.166 HD
ATOM     26  C   UNL     1      -1.239  -2.733   0.356  0.00  0.00    +0.030 A 
ATOM     27  C   UNL     1      -1.188  -3.942  -0.303  0.00  0.00    +0.051 A 
ATOM     28  C   UNL     1       0.032  -4.561  -0.555  0.00  0.00    +0.166 A 
ATOM     29  C   UNL     1       1.212  -3.966  -0.147  0.00  0.00    +0.175 A 
ATOM     30  F   UNL     1       2.397  -4.567  -0.393  0.00  0.00    -0.201 F 
ENDBRANCH  18  28
ENDBRANCH   1  18
TORSDOF 9
