REMARK  Name = CHEMBL387604
REMARK  7 active torsions:
REMARK  status: ('A' for Active; 'I' for Inactive)
REMARK    1  A    between atoms: C_1  and  O_2
REMARK    2  A    between atoms: O_2  and  C_3
REMARK    3  A    between atoms: C_10  and  O_15
REMARK    4  A    between atoms: O_15  and  C_16
REMARK    5  A    between atoms: C_19  and  N_22
REMARK    6  A    between atoms: N_25  and  C_26
REMARK    7  A    between atoms: C_28  and  C_33
REMARK                            x       y       z     vdW  Elec       q    Type
REMARK                         _______ _______ _______ _____ _____    ______ ____
ROOT
ATOM      1  C   UNL     1       4.180  -5.998  -7.381  0.00  0.00    +0.129 A 
ATOM      2  C   UNL     1       4.511  -4.734  -7.850  0.00  0.00    +0.048 A 
ATOM      3  C   UNL     1       5.159  -4.595  -9.061  0.00  0.00    +0.027 A 
ATOM      4  C   UNL     1       5.480  -5.719  -9.810  0.00  0.00    +0.035 A 
ATOM      5  C   UNL     1       5.149  -6.983  -9.341  0.00  0.00    +0.027 A 
ATOM      6  C   UNL     1       4.505  -7.122  -8.127  0.00  0.00    +0.048 A 
ENDROOT
BRANCH   4   7
ATOM      7  N   UNL     1       6.137  -5.578 -11.040  0.00  0.00    -0.269 N 
ATOM      8  C   UNL     1       7.050  -4.601 -11.207  0.00  0.00    +0.308 C 
ATOM      9  O   UNL     1       7.243  -3.791 -10.321  0.00  0.00    -0.252 OA
ATOM     10  N   UNL     1       7.748  -4.521 -12.357  0.00  0.00    -0.267 N 
ATOM     11  H   UNL     1       5.935  -6.184 -11.770  0.00  0.00    +0.156 HD
ATOM     12  H   UNL     1       7.554  -5.131 -13.086  0.00  0.00    +0.156 HD
BRANCH  10  13
ATOM     13  C   UNL     1       8.755  -3.558 -12.500  0.00  0.00    +0.071 A 
ATOM     14  C   UNL     1       8.709  -2.388 -11.754  0.00  0.00    +0.038 A 
ATOM     15  C   UNL     1       9.703  -1.440 -11.897  0.00  0.00    +0.057 A 
ATOM     16  C   UNL     1      10.744  -1.653 -12.783  0.00  0.00    +0.015 A 
ATOM     17  C   UNL     1      10.794  -2.817 -13.528  0.00  0.00    +0.041 A 
ATOM     18  C   UNL     1       9.805  -3.773 -13.386  0.00  0.00    +0.145 A 
ATOM     19  F   UNL     1       9.857  -4.913 -14.110  0.00  0.00    -0.204 F 
BRANCH  15  20
ATOM     20  C   UNL     1       9.653  -0.170 -11.088  0.00  0.00    +0.417 C 
ATOM     21  F   UNL     1      10.332  -0.360  -9.879  0.00  0.00    -0.166 F 
ATOM     22  F   UNL     1      10.261   0.866 -11.806  0.00  0.00    -0.166 F 
ATOM     23  F   UNL     1       8.320   0.165 -10.826  0.00  0.00    -0.166 F 
ENDBRANCH  15  20
ENDBRANCH  10  13
ENDBRANCH   4   7
BRANCH   1  24
ATOM     24  O   UNL     1       3.541  -6.135  -6.189  0.00  0.00    -0.454 OA
BRANCH  24  32
ATOM     25  C   UNL     1      -4.213  -3.967  -7.097  0.00  0.00    +0.407 C 
ATOM     26  O   UNL     1      -4.165  -4.359  -5.948  0.00  0.00    -0.226 OA
ATOM     27  N   UNL     1      -3.103  -3.982  -7.861  0.00  0.00    -0.220 N 
ATOM     28  C   UNL     1      -1.909  -4.444  -7.337  0.00  0.00    +0.227 A 
ATOM     29  N   UNL     1      -0.725  -4.500  -8.015  0.00  0.00    -0.211 NA
ATOM     30  C   UNL     1       0.219  -5.017  -7.146  0.00  0.00    +0.115 A 
ATOM     31  C   UNL     1       1.571  -5.307  -7.248  0.00  0.00    +0.079 A 
ATOM     32  C   UNL     1       2.216  -5.835  -6.136  0.00  0.00    +0.149 A 
ATOM     33  C   UNL     1       1.493  -6.053  -4.970  0.00  0.00    +0.159 A 
ATOM     34  N   UNL     1       0.210  -5.771  -4.897  0.00  0.00    -0.231 NA
ATOM     35  C   UNL     1      -0.452  -5.263  -5.935  0.00  0.00    +0.182 A 
ATOM     36  N   UNL     1      -1.744  -4.887  -6.116  0.00  0.00    -0.193 NA
ATOM     37  H   UNL     1      -3.142  -3.669  -8.778  0.00  0.00    +0.161 HD
BRANCH  25  39
ATOM     38  C   UNL     1      -6.511  -3.530  -6.740  0.00  0.00    +0.282 C 
ATOM     39  O   UNL     1      -5.375  -3.518  -7.606  0.00  0.00    -0.453 OA
ENDBRANCH  25  39
ENDBRANCH  24  32
ENDBRANCH   1  24
TORSDOF 6
