REMARK  Name = CHEMBL411284
REMARK  8 active torsions:
REMARK  status: ('A' for Active; 'I' for Inactive)
REMARK    1  A    between atoms: C_1  and  O_2
REMARK    2  A    between atoms: O_2  and  C_3
REMARK    3  A    between atoms: C_8  and  O_9
REMARK    4  A    between atoms: O_9  and  C_10
REMARK    5  A    between atoms: C_14  and  O_15
REMARK    6  A    between atoms: O_15  and  C_16
REMARK    7  A    between atoms: C_25  and  C_26
REMARK    8  A    between atoms: N_28  and  C_29
REMARK                            x       y       z     vdW  Elec       q    Type
REMARK                         _______ _______ _______ _____ _____    ______ ____
ROOT
ATOM      1  C   UNL     1       3.003   2.372  -5.108  0.00  0.00    +0.131 A 
ATOM      2  C   UNL     1       3.582   1.732  -6.208  0.00  0.00    +0.047 A 
ATOM      3  C   UNL     1       4.160   2.450  -7.210  0.00  0.00    +0.013 A 
ATOM      4  C   UNL     1       4.178   3.850  -7.142  0.00  0.00    -0.006 A 
ATOM      5  C   UNL     1       3.593   4.503  -6.029  0.00  0.00    -0.014 A 
ATOM      6  C   UNL     1       3.000   3.735  -5.014  0.00  0.00    +0.054 A 
ATOM      7  C   UNL     1       3.611   5.907  -5.962  0.00  0.00    +0.008 A 
ATOM      8  C   UNL     1       4.186   6.632  -6.962  0.00  0.00    +0.001 A 
ATOM      9  C   UNL     1       4.764   6.010  -8.061  0.00  0.00    +0.013 A 
ATOM     10  C   UNL     1       4.771   4.627  -8.168  0.00  0.00    +0.044 A 
ENDROOT
BRANCH  10  11
ATOM     11  C   UNL     1       5.387   3.972  -9.338  0.00  0.00    +0.245 C 
ATOM     12  O   UNL     1       5.293   2.768  -9.480  0.00  0.00    -0.270 OA
ATOM     13  N   UNL     1       6.054   4.709 -10.248  0.00  0.00    -0.308 N 
ATOM     14  H   UNL     1       6.128   5.669 -10.135  0.00  0.00    +0.149 HD
BRANCH  13  15
ATOM     15  C   UNL     1       6.666   4.059 -11.410  0.00  0.00    +0.073 C 
ATOM     16  C   UNL     1       8.078   4.498 -11.803  0.00  0.00    +0.024 C 
ATOM     17  C   UNL     1       6.881   4.909 -12.663  0.00  0.00    +0.024 C 
ENDBRANCH  13  15
ENDBRANCH  10  11
BRANCH   1  18
ATOM     18  O   UNL     1       2.433   1.629  -4.123  0.00  0.00    -0.437 OA
BRANCH  18  28
ATOM     19  C   UNL     1       0.892  -0.470  -0.811  0.00  0.00    +0.162 A 
ATOM     20  C   UNL     1       1.349   0.221  -1.897  0.00  0.00    +0.064 A 
ATOM     21  C   UNL     1       2.726   0.289  -2.146  0.00  0.00    +0.066 A 
ATOM     22  C   UNL     1       3.635  -0.358  -1.272  0.00  0.00    +0.082 A 
ATOM     23  C   UNL     1       3.143  -1.060  -0.164  0.00  0.00    +0.078 A 
ATOM     24  C   UNL     1       1.785  -1.108   0.061  0.00  0.00    +0.164 A 
ATOM     25  N   UNL     1       4.948  -0.276  -1.532  0.00  0.00    -0.235 NA
ATOM     26  C   UNL     1       5.378   0.390  -2.577  0.00  0.00    +0.225 A 
ATOM     27  N   UNL     1       4.565   1.010  -3.419  0.00  0.00    -0.201 NA
ATOM     28  C   UNL     1       3.251   0.992  -3.254  0.00  0.00    +0.231 A 
BRANCH  19  30
ATOM     29  C   UNL     1      -1.304   0.134  -1.495  0.00  0.00    +0.277 C 
ATOM     30  O   UNL     1      -0.445  -0.536  -0.571  0.00  0.00    -0.491 OA
ENDBRANCH  19  30
BRANCH  24  31
ATOM     31  O   UNL     1       1.306  -1.785   1.137  0.00  0.00    -0.491 OA
ATOM     32  C   UNL     1       2.267  -2.413   1.988  0.00  0.00    +0.277 C 
ENDBRANCH  24  31
ENDBRANCH  18  28
ENDBRANCH   1  18
TORSDOF 6
