REMARK  Name = CHEMBL380735
REMARK  5 active torsions:
REMARK  status: ('A' for Active; 'I' for Inactive)
REMARK    1  A    between atoms: C_6  and  N_7
REMARK    2  A    between atoms: N_10  and  C_13
REMARK    3  A    between atoms: C_13  and  C_14
REMARK    4  A    between atoms: C_14  and  N_15
REMARK    5  A    between atoms: C_24  and  C_26
REMARK                            x       y       z     vdW  Elec       q    Type
REMARK                         _______ _______ _______ _____ _____    ______ ____
ROOT
ATOM      1  C   UNL     1       0.011   1.135  -0.234  0.00  0.00    +0.085 A 
ATOM      2  C   UNL     1       1.113   1.953  -0.007  0.00  0.00    +0.106 A 
ATOM      3  N   UNL     1       2.297   1.391   0.231  0.00  0.00    -0.334 N 
ATOM      4  C   UNL     1       2.432   0.081   0.252  0.00  0.00    +0.199 A 
ATOM      5  N   UNL     1       1.413  -0.727   0.042  0.00  0.00    -0.223 NA
ATOM      6  C   UNL     1       0.196  -0.244  -0.203  0.00  0.00    +0.126 A 
ATOM      7  N   UNL     1       0.981   3.335  -0.028  0.00  0.00    -0.280 N 
ATOM      8  C   UNL     1      -0.273   3.908  -0.131  0.00  0.00    +0.165 A 
ATOM      9  N   UNL     1      -1.448   3.306  -0.129  0.00  0.00    -0.232 NA
ATOM     10  C   UNL     1      -2.564   3.985  -0.235  0.00  0.00    +0.139 A 
ATOM     11  C   UNL     1      -2.439   5.362  -0.349  0.00  0.00    +0.110 A 
ATOM     12  S   UNL     1      -0.663   5.537  -0.281  0.00  0.00    -0.042 S 
ATOM     13  H   UNL     1       1.768   3.898   0.029  0.00  0.00    +0.155 HD
ATOM     14  H   UNL     1       3.071   1.954   0.391  0.00  0.00    +0.168 HD
ENDROOT
BRANCH   6  15
ATOM     15  N   UNL     1      -0.870  -1.102  -0.422  0.00  0.00    -0.313 N 
ATOM     16  C   UNL     1      -0.747  -2.543  -0.156  0.00  0.00    +0.122 C 
ATOM     17  C   UNL     1      -1.921  -2.977   0.728  0.00  0.00    +0.103 C 
ATOM     18  N   UNL     1      -3.183  -2.568   0.097  0.00  0.00    -0.301 NA
ATOM     19  C   UNL     1      -3.274  -1.106  -0.014  0.00  0.00    +0.103 C 
ATOM     20  C   UNL     1      -2.157  -0.595  -0.922  0.00  0.00    +0.122 C 
BRANCH  18  21
ATOM     21  C   UNL     1      -4.337  -3.114   0.824  0.00  0.00    +0.066 C 
BRANCH  21  22
ATOM     22  C   UNL     1      -5.610  -2.881   0.007  0.00  0.00    -0.063 C 
BRANCH  22  23
ATOM     23  N   UNL     1      -6.764  -3.427   0.734  0.00  0.00    +0.381 N 
ATOM     24  C   UNL     1      -7.028  -2.622   1.954  0.00  0.00    -0.079 C 
ATOM     25  C   UNL     1      -8.513  -2.932   2.269  0.00  0.00    -0.020 C 
ATOM     26  C   UNL     1      -9.153  -3.018   0.864  0.00  0.00    -0.020 C 
ATOM     27  C   UNL     1      -7.985  -3.319  -0.093  0.00  0.00    -0.079 C 
ATOM     28  H   UNL     1      -6.596  -4.391   0.982  0.00  0.00    -0.082 HD
ENDBRANCH  22  23
ENDBRANCH  21  22
ENDBRANCH  18  21
ENDBRANCH   6  15
BRANCH  11  29
ATOM     29  C   UNL     1      -3.453   6.364  -0.479  0.00  0.00    +0.108 C 
ATOM     30  N   UNL     1      -4.258   7.160  -0.583  0.00  0.00    -0.190 NA
ENDBRANCH  11  29
TORSDOF 5
