REMARK  Name = CHEMBL572881
REMARK  7 active torsions:
REMARK  status: ('A' for Active; 'I' for Inactive)
REMARK    1  A    between atoms: C_1  and  C_2
REMARK    2  A    between atoms: C_2  and  C_28
REMARK    3  A    between atoms: C_9  and  N_11
REMARK    4  A    between atoms: C_12  and  C_14
REMARK    5  A    between atoms: C_19  and  N_20
REMARK    6  A    between atoms: N_20  and  C_21
REMARK    7  A    between atoms: C_21  and  C_22
REMARK                            x       y       z     vdW  Elec       q    Type
REMARK                         _______ _______ _______ _____ _____    ______ ____
ROOT
ATOM      1  N   UNL     1       2.031  -2.281   4.772  0.00  0.00    -0.281 N 
ATOM      2  C   UNL     1       3.334  -2.218   5.112  0.00  0.00    +0.252 C 
ATOM      3  O   UNL     1       4.106  -1.558   4.442  0.00  0.00    -0.270 OA
ATOM      4  H   UNL     1       1.402  -2.745   5.347  0.00  0.00    +0.155 HD
ENDROOT
BRANCH   1  13
ATOM      5  C   UNL     1       0.747   1.472  -0.296  0.00  0.00    +0.017 C 
ATOM      6  C   UNL     1      -0.013   0.211   0.122  0.00  0.00    +0.007 C 
ATOM      7  C   UNL     1      -1.384   0.581   0.710  0.00  0.00    +0.112 C 
ATOM      8  N   UNL     1      -1.358   0.086   2.088  0.00  0.00    -0.343 N 
ATOM      9  C   UNL     1      -0.131  -0.524   2.356  0.00  0.00    +0.033 A 
ATOM     10  C   UNL     1       0.709  -0.489   1.252  0.00  0.00    -0.019 A 
ATOM     11  C   UNL     1       1.974  -1.042   1.313  0.00  0.00    +0.008 A 
ATOM     12  C   UNL     1       2.417  -1.638   2.478  0.00  0.00    +0.024 A 
ATOM     13  C   UNL     1       1.587  -1.679   3.591  0.00  0.00    +0.035 A 
ATOM     14  C   UNL     1       0.319  -1.125   3.532  0.00  0.00    +0.046 A 
ATOM     15  C   UNL     1      -0.177  -0.732  -1.071  0.00  0.00    +0.017 C 
ATOM     16  H   UNL     1      -2.087   0.170   2.723  0.00  0.00    +0.146 HD
ENDBRANCH   1  13
BRANCH   2  17
ATOM     17  C   UNL     1       3.823  -2.947   6.296  0.00  0.00    +0.077 A 
ATOM     18  C   UNL     1       2.975  -3.805   7.005  0.00  0.00    +0.018 A 
ATOM     19  C   UNL     1       3.482  -4.466   8.109  0.00  0.00    +0.021 A 
ATOM     20  C   UNL     1       4.801  -4.265   8.478  0.00  0.00    +0.113 A 
ATOM     21  N   UNL     1       5.584  -3.453   7.796  0.00  0.00    -0.240 NA
ATOM     22  C   UNL     1       5.152  -2.799   6.729  0.00  0.00    +0.131 A 
BRANCH  22  23
ATOM     23  N   UNL     1       6.011  -1.962   6.040  0.00  0.00    -0.324 N 
ATOM     24  H   UNL     1       5.720  -1.540   5.216  0.00  0.00    +0.148 HD
BRANCH  23  25
ATOM     25  C   UNL     1       7.359  -1.713   6.554  0.00  0.00    +0.138 C 
BRANCH  25  26
ATOM     26  C   UNL     1       8.085  -0.774   5.626  0.00  0.00    -0.028 A 
ATOM     27  C   UNL     1       8.832  -1.262   4.564  0.00  0.00    +0.025 A 
ATOM     28  C   UNL     1       9.484  -0.371   3.733  0.00  0.00    +0.111 A 
ATOM     29  N   UNL     1       9.403   0.929   3.941  0.00  0.00    -0.263 NA
ATOM     30  C   UNL     1       8.702   1.429   4.941  0.00  0.00    +0.111 A 
ATOM     31  C   UNL     1       8.018   0.599   5.809  0.00  0.00    +0.025 A 
ENDBRANCH  25  26
ENDBRANCH  23  25
ENDBRANCH  22  23
ENDBRANCH   2  17
TORSDOF 5
