REMARK  Name = CHEMBL429845
REMARK  8 active torsions:
REMARK  status: ('A' for Active; 'I' for Inactive)
REMARK    1  A    between atoms: C_1  and  C_2
REMARK    2  A    between atoms: C_2  and  C_3
REMARK    3  A    between atoms: C_2  and  C_4
REMARK    4  A    between atoms: C_5  and  C_28
REMARK    5  A    between atoms: N_13  and  C_14
REMARK    6  A    between atoms: C_16  and  C_22
REMARK    7  A    between atoms: N_24  and  C_25
REMARK    8  A    between atoms: N_36  and  C_39
REMARK                            x       y       z     vdW  Elec       q    Type
REMARK                         _______ _______ _______ _____ _____    ______ ____
ROOT
ATOM      1  C   UNL     1      -1.472  -0.560  -0.000  0.00  0.00    -0.002 A 
ATOM      2  C   UNL     1      -2.371  -0.542   1.082  0.00  0.00    +0.062 A 
ATOM      3  C   UNL     1      -3.350  -1.483   0.820  0.00  0.00    +0.126 A 
ATOM      4  N   UNL     1      -3.086  -2.064  -0.363  0.00  0.00    -0.234 N 
ATOM      5  C   UNL     1      -1.935  -1.507  -0.889  0.00  0.00    +0.109 A 
ATOM      6  C   UNL     1      -1.472  -1.971  -2.144  0.00  0.00    +0.151 A 
ATOM      7  N   UNL     1      -2.152  -2.916  -2.773  0.00  0.00    -0.217 NA
ATOM      8  C   UNL     1      -3.260  -3.441  -2.255  0.00  0.00    +0.245 A 
ATOM      9  N   UNL     1      -3.737  -3.064  -1.100  0.00  0.00    -0.155 NA
ATOM     10  N   UNL     1      -0.326  -1.444  -2.705  0.00  0.00    -0.295 N 
ATOM     11  H   UNL     1       0.218  -0.820  -2.200  0.00  0.00    +0.154 HD
ENDROOT
BRANCH   2  12
ATOM     12  C   UNL     1      -2.285   0.322   2.279  0.00  0.00    +0.252 A 
ATOM     13  N   UNL     1      -1.360   1.218   2.524  0.00  0.00    -0.106 NA
ATOM     14  N   UNL     1      -1.600   1.781   3.655  0.00  0.00    -0.092 NA
ATOM     15  C   UNL     1      -2.688   1.268   4.177  0.00  0.00    +0.311 A 
ATOM     16  O   UNL     1      -3.149   0.339   3.317  0.00  0.00    -0.405 OA
ATOM     17  N   UNL     1      -3.260   1.619   5.386  0.00  0.00    -0.281 N 
ATOM     18  C   UNL     1      -4.485   0.958   5.862  0.00  0.00    +0.125 C 
ATOM     19  C   UNL     1      -4.249   0.470   7.295  0.00  0.00    +0.103 C 
ATOM     20  N   UNL     1      -3.788   1.594   8.122  0.00  0.00    -0.302 NA
ATOM     21  C   UNL     1      -2.496   2.109   7.648  0.00  0.00    +0.103 C 
ATOM     22  C   UNL     1      -2.657   2.660   6.232  0.00  0.00    +0.125 C 
ATOM     23  C   UNL     1      -3.715   1.210   9.538  0.00  0.00    +0.105 C 
ENDBRANCH   2  12
BRANCH  10  24
ATOM     24  C   UNL     1       0.052  -1.812  -4.003  0.00  0.00    +0.069 A 
ATOM     25  C   UNL     1      -0.887  -2.335  -4.874  0.00  0.00    +0.042 A 
ATOM     26  C   UNL     1      -0.508  -2.700  -6.167  0.00  0.00    +0.074 A 
ATOM     27  C   UNL     1       0.821  -2.534  -6.574  0.00  0.00    +0.138 A 
ATOM     28  C   UNL     1       1.751  -2.010  -5.697  0.00  0.00    +0.079 A 
ATOM     29  C   UNL     1       1.371  -1.644  -4.417  0.00  0.00    +0.147 A 
ATOM     30  F   UNL     1       2.284  -1.127  -3.566  0.00  0.00    -0.203 F 
ATOM     31  F   UNL     1       1.194  -2.885  -7.824  0.00  0.00    -0.205 F 
BRANCH  26  32
ATOM     32  C   UNL     1      -1.504  -3.260  -7.101  0.00  0.00    +0.247 C 
ATOM     33  O   UNL     1      -1.171  -3.577  -8.227  0.00  0.00    -0.270 OA
ATOM     34  N   UNL     1      -2.783  -3.420  -6.707  0.00  0.00    -0.308 N 
ATOM     35  H   UNL     1      -3.048  -3.167  -5.809  0.00  0.00    +0.149 HD
BRANCH  34  36
ATOM     36  C   UNL     1      -3.771  -3.975  -7.634  0.00  0.00    +0.073 C 
ATOM     37  C   UNL     1      -5.143  -3.299  -7.692  0.00  0.00    +0.024 C 
ATOM     38  C   UNL     1      -4.993  -4.671  -7.030  0.00  0.00    +0.024 C 
ENDBRANCH  34  36
ENDBRANCH  26  32
ENDBRANCH  10  24
BRANCH   1  40
ATOM     39  C   UNL     1      -0.642   1.772  -0.153  0.00  0.00    +0.012 C 
ATOM     40  C   UNL     1      -0.241   0.295  -0.160  0.00  0.00    +0.016 C 
ATOM     41  C   UNL     1       0.723   0.023   0.997  0.00  0.00    +0.012 C 
ENDBRANCH   1  40
TORSDOF 5
