REMARK  Name = CHEMBL179517
REMARK  11 active torsions:
REMARK  status: ('A' for Active; 'I' for Inactive)
REMARK    1  A    between atoms: C_1  and  C_2
REMARK    2  A    between atoms: C_5  and  N_9
REMARK    3  A    between atoms: C_7  and  O_8
REMARK    4  A    between atoms: C_12  and  C_30
REMARK    5  A    between atoms: C_13  and  C_19
REMARK    6  A    between atoms: N_21  and  C_22
REMARK    7  A    between atoms: C_22  and  C_23
REMARK    8  A    between atoms: C_23  and  C_24
REMARK    9  A    between atoms: C_24  and  N_25
REMARK   10  A    between atoms: C_30  and  C_31
REMARK   11  A    between atoms: C_30  and  C_32
REMARK                            x       y       z     vdW  Elec       q    Type
REMARK                         _______ _______ _______ _____ _____    ______ ____
ROOT
ATOM      1  N   UNL     1      -0.708  -4.371  -0.528  0.00  0.00    -0.298 N 
ATOM      2  C   UNL     1      -1.094  -5.352  -1.419  0.00  0.00    +0.151 A 
ATOM      3  C   UNL     1      -0.849  -6.718  -1.132  0.00  0.00    +0.109 A 
ATOM      4  C   UNL     1      -0.259  -7.370  -0.073  0.00  0.00    -0.002 A 
ATOM      5  C   UNL     1      -0.309  -8.748  -0.364  0.00  0.00    +0.060 A 
ATOM      6  C   UNL     1      -0.930  -8.885  -1.595  0.00  0.00    +0.126 A 
ATOM      7  N   UNL     1      -1.252  -7.668  -2.054  0.00  0.00    -0.234 N 
ATOM      8  N   UNL     1      -1.885  -7.229  -3.226  0.00  0.00    -0.155 NA
ATOM      9  C   UNL     1      -2.080  -5.955  -3.427  0.00  0.00    +0.245 A 
ATOM     10  N   UNL     1      -1.701  -5.029  -2.548  0.00  0.00    -0.217 NA
ATOM     11  H   UNL     1      -0.167  -4.602   0.243  0.00  0.00    +0.154 HD
ENDROOT
BRANCH   1  16
ATOM     12  C   UNL     1      -2.289   1.011  -1.387  0.00  0.00    +0.047 C 
ATOM     13  C   UNL     1      -1.870  -0.418  -1.158  0.00  0.00    -0.009 A 
ATOM     14  C   UNL     1      -1.645  -1.252  -2.236  0.00  0.00    +0.009 A 
ATOM     15  C   UNL     1      -1.260  -2.563  -2.030  0.00  0.00    +0.024 A 
ATOM     16  C   UNL     1      -1.097  -3.045  -0.737  0.00  0.00    +0.036 A 
ATOM     17  C   UNL     1      -1.322  -2.208   0.347  0.00  0.00    +0.069 A 
ATOM     18  C   UNL     1      -1.704  -0.892   0.136  0.00  0.00    +0.122 A 
BRANCH  18  19
ATOM     19  O   UNL     1      -1.920  -0.068   1.195  0.00  0.00    -0.506 OA
ATOM     20  H   UNL     1      -2.831  -0.076   1.520  0.00  0.00    +0.292 HD
ENDBRANCH  18  19
ENDBRANCH   1  16
BRANCH   5  21
ATOM     21  C   UNL     1       0.204  -9.841   0.483  0.00  0.00    +0.246 C 
ATOM     22  O   UNL     1       0.659  -9.594   1.584  0.00  0.00    -0.270 OA
ATOM     23  N   UNL     1       0.170 -11.112   0.037  0.00  0.00    -0.311 N 
ATOM     24  H   UNL     1      -0.193 -11.309  -0.841  0.00  0.00    +0.149 HD
BRANCH  23  25
ATOM     25  C   UNL     1       0.680 -12.197   0.879  0.00  0.00    +0.102 C 
BRANCH  25  26
ATOM     26  C   UNL     1       0.525 -13.530   0.143  0.00  0.00    +0.000 C 
BRANCH  26  27
ATOM     27  C   UNL     1       1.058 -14.663   1.022  0.00  0.00    -0.077 C 
BRANCH  27  28
ATOM     28  N   UNL     1       0.909 -15.942   0.315  0.00  0.00    +0.380 N 
ATOM     29  C   UNL     1       1.831 -15.995  -0.848  0.00  0.00    -0.079 C 
ATOM     30  C   UNL     1       1.976 -17.514  -1.117  0.00  0.00    -0.020 C 
ATOM     31  C   UNL     1       1.988 -18.117   0.306  0.00  0.00    -0.020 C 
ATOM     32  C   UNL     1       1.307 -17.061   1.197  0.00  0.00    -0.079 C 
ATOM     33  H   UNL     1      -0.045 -16.063   0.010  0.00  0.00    -0.082 HD
ENDBRANCH  27  28
ENDBRANCH  26  27
ENDBRANCH  25  26
ENDBRANCH  23  25
ENDBRANCH   5  21
BRANCH   4  34
ATOM     34  C   UNL     1       0.327  -6.732   1.160  0.00  0.00    +0.016 C 
ATOM     35  C   UNL     1      -0.509  -7.120   2.381  0.00  0.00    +0.012 C 
ATOM     36  C   UNL     1       1.765  -7.219   1.351  0.00  0.00    +0.012 C 
ENDBRANCH   4  34
TORSDOF 8
