REMARK  Name = CHEMBL496575
REMARK  8 active torsions:
REMARK  status: ('A' for Active; 'I' for Inactive)
REMARK    1  A    between atoms: C_1  and  C_2
REMARK    2  A    between atoms: C_2  and  C_3
REMARK    3  A    between atoms: C_3  and  C_4
REMARK    4  A    between atoms: C_4  and  C_5
REMARK    5  A    between atoms: C_6  and  C_14
REMARK    6  A    between atoms: N_20  and  C_21
REMARK    7  A    between atoms: C_24  and  N_27
REMARK    8  A    between atoms: N_30  and  C_33
REMARK                            x       y       z     vdW  Elec       q    Type
REMARK                         _______ _______ _______ _____ _____    ______ ____
ROOT
ATOM      1  C   UNL     1      -0.607  -2.699  -4.035  0.00  0.00    +0.080 A 
ATOM      2  C   UNL     1      -1.069  -2.914  -5.340  0.00  0.00    +0.048 A 
ATOM      3  C   UNL     1      -2.417  -2.755  -5.594  0.00  0.00    +0.116 A 
ATOM      4  N   UNL     1      -3.228  -2.408  -4.605  0.00  0.00    -0.223 NA
ATOM      5  C   UNL     1      -2.764  -2.211  -3.379  0.00  0.00    +0.220 A 
ATOM      6  N   UNL     1      -1.481  -2.357  -3.089  0.00  0.00    -0.214 NA
ATOM      7  N   UNL     1      -3.646  -1.848  -2.375  0.00  0.00    -0.284 N 
ATOM      8  H   UNL     1      -3.311  -1.619  -1.494  0.00  0.00    +0.155 HD
ENDROOT
BRANCH   1  10
ATOM      9  C   UNL     1       1.623  -1.948  -3.007  0.00  0.00    +0.075 A 
ATOM     10  C   UNL     1       0.826  -2.856  -3.712  0.00  0.00    +0.051 A 
ATOM     11  C   UNL     1       1.645  -3.943  -4.054  0.00  0.00    +0.097 A 
ATOM     12  C   UNL     1       1.418  -5.138  -4.749  0.00  0.00    +0.032 A 
ATOM     13  C   UNL     1       2.451  -6.013  -4.918  0.00  0.00    +0.024 A 
ATOM     14  C   UNL     1       3.715  -5.712  -4.401  0.00  0.00    +0.135 A 
ATOM     15  N   UNL     1       3.929  -4.598  -3.751  0.00  0.00    -0.157 NA
ATOM     16  N   UNL     1       2.894  -3.675  -3.557  0.00  0.00    -0.149 N 
ATOM     17  N   UNL     1       2.841  -2.430  -2.921  0.00  0.00    -0.153 NA
BRANCH   9  18
ATOM     18  C   UNL     1       1.160  -0.629  -2.443  0.00  0.00    +0.058 C 
BRANCH  18  19
ATOM     19  C   UNL     1       1.349   0.468  -3.492  0.00  0.00    +0.006 C 
BRANCH  19  21
ATOM     20  C   UNL     1       1.068   2.905  -3.968  0.00  0.00    +0.004 C 
ATOM     21  C   UNL     1       0.879   1.807  -2.919  0.00  0.00    -0.003 C 
ENDBRANCH  19  21
ENDBRANCH  18  19
ENDBRANCH   9  18
ENDBRANCH   1  10
BRANCH   7  22
ATOM     22  C   UNL     1      -5.023  -1.813  -2.631  0.00  0.00    +0.034 A 
ATOM     23  C   UNL     1      -5.592  -2.736  -3.498  0.00  0.00    +0.025 A 
ATOM     24  C   UNL     1      -6.949  -2.701  -3.750  0.00  0.00    +0.025 A 
ATOM     25  C   UNL     1      -7.745  -1.743  -3.137  0.00  0.00    +0.030 A 
ATOM     26  C   UNL     1      -7.176  -0.819  -2.270  0.00  0.00    +0.025 A 
ATOM     27  C   UNL     1      -5.820  -0.858  -2.013  0.00  0.00    +0.025 A 
BRANCH  25  28
ATOM     28  N   UNL     1      -9.121  -1.707  -3.393  0.00  0.00    -0.333 N 
ATOM     29  C   UNL     1     -10.001  -0.777  -2.669  0.00  0.00    +0.086 C 
ATOM     30  C   UNL     1     -10.853  -0.018  -3.691  0.00  0.00    -0.060 C 
ATOM     31  N   UNL     1     -11.559  -0.979  -4.548  0.00  0.00    +0.380 N 
ATOM     32  C   UNL     1     -10.592  -1.752  -5.336  0.00  0.00    -0.060 C 
ATOM     33  C   UNL     1      -9.726  -2.593  -4.399  0.00  0.00    +0.086 C 
ATOM     34  C   UNL     1     -12.459  -0.254  -5.455  0.00  0.00    -0.096 C 
ATOM     35  H   UNL     1     -12.100  -1.606  -3.972  0.00  0.00    -0.082 HD
ENDBRANCH  25  28
ENDBRANCH   7  22
TORSDOF 6
