REMARK  Name = CHEMBL224547
REMARK  7 active torsions:
REMARK  status: ('A' for Active; 'I' for Inactive)
REMARK    1  A    between atoms: C_1  and  N_2
REMARK    2  A    between atoms: N_5  and  C_8
REMARK    3  A    between atoms: C_20  and  C_21
REMARK    4  A    between atoms: C_23  and  C_26
REMARK    5  A    between atoms: C_27  and  C_28
REMARK    6  A    between atoms: C_28  and  O_29
REMARK    7  A    between atoms: O_29  and  C_30
REMARK                            x       y       z     vdW  Elec       q    Type
REMARK                         _______ _______ _______ _____ _____    ______ ____
ROOT
ATOM      1  C   UNL     1      -0.972  -3.609   1.776  0.00  0.00    +0.030 A 
ATOM      2  C   UNL     1      -2.280  -4.064   1.657  0.00  0.00    +0.024 A 
ATOM      3  C   UNL     1      -2.739  -5.076   2.471  0.00  0.00    +0.012 A 
ATOM      4  C   UNL     1      -1.889  -5.650   3.420  0.00  0.00    +0.004 A 
ATOM      5  C   UNL     1      -0.577  -5.189   3.533  0.00  0.00    -0.032 A 
ATOM      6  C   UNL     1      -0.120  -4.181   2.716  0.00  0.00    +0.027 A 
ATOM      7  C   UNL     1       0.080  -5.992   4.629  0.00  0.00    +0.075 C 
ATOM      8  C   UNL     1      -0.976  -6.949   5.126  0.00  0.00    +0.010 A 
ATOM      9  C   UNL     1      -2.112  -6.730   4.407  0.00  0.00    +0.070 A 
ATOM     10  N   UNL     1      -3.059  -7.602   4.867  0.00  0.00    -0.276 N 
ATOM     11  H   UNL     1      -3.970  -7.679   4.543  0.00  0.00    +0.189 HD
ATOM     12  N   UNL     1      -2.482  -8.367   5.888  0.00  0.00    -0.173 NA
ATOM     13  C   UNL     1      -1.235  -7.977   6.046  0.00  0.00    +0.097 A 
ENDROOT
BRANCH   1  18
ATOM     14  C   UNL     1      -0.038   1.464  -0.002  0.00  0.00    -0.096 C 
ATOM     15  N   UNL     1      -0.008  -0.004  -0.004  0.00  0.00    +0.380 N 
ATOM     16  C   UNL     1      -1.382  -0.520  -0.014  0.00  0.00    -0.060 C 
ATOM     17  C   UNL     1      -1.353  -2.048  -0.132  0.00  0.00    +0.086 C 
ATOM     18  N   UNL     1      -0.511  -2.583   0.950  0.00  0.00    -0.333 N 
ATOM     19  C   UNL     1       0.829  -2.005   1.137  0.00  0.00    +0.086 C 
ATOM     20  C   UNL     1       0.696  -0.479   1.195  0.00  0.00    -0.060 C 
ATOM     21  H   UNL     1       0.477  -0.328  -0.827  0.00  0.00    -0.082 HD
ENDBRANCH   1  18
BRANCH  13  22
ATOM     22  C   UNL     1      -0.267  -8.531   7.027  0.00  0.00    +0.011 A 
ATOM     23  C   UNL     1      -0.692  -8.956   8.276  0.00  0.00    +0.034 A 
ATOM     24  C   UNL     1       0.234  -9.460   9.149  0.00  0.00    +0.063 A 
ATOM     25  S   UNL     1       1.744  -9.340   8.205  0.00  0.00    -0.088 S 
ATOM     26  C   UNL     1       1.061  -8.637   6.714  0.00  0.00    +0.056 A 
BRANCH  24  27
ATOM     27  C   UNL     1       0.041  -9.956  10.479  0.00  0.00    -0.056 C 
ATOM     28  C   UNL     1      -0.118 -10.363  11.568  0.00  0.00    -0.056 C 
BRANCH  28  29
ATOM     29  C   UNL     1      -0.317 -10.872  12.935  0.00  0.00    +0.318 C 
BRANCH  29  30
ATOM     30  O   UNL     1       0.938 -11.298  13.472  0.00  0.00    -0.480 OA
BRANCH  30  31
ATOM     31  C   UNL     1       0.930 -11.799  14.735  0.00  0.00    +0.122 A 
ATOM     32  C   UNL     1      -0.261 -11.884  15.441  0.00  0.00    +0.046 A 
ATOM     33  C   UNL     1      -0.266 -12.394  16.725  0.00  0.00    +0.004 A 
ATOM     34  C   UNL     1       0.915 -12.819  17.306  0.00  0.00    +0.000 A 
ATOM     35  C   UNL     1       2.103 -12.735  16.604  0.00  0.00    +0.004 A 
ATOM     36  C   UNL     1       2.112 -12.231  15.318  0.00  0.00    +0.046 A 
ENDBRANCH  30  31
ENDBRANCH  29  30
ENDBRANCH  28  29
ENDBRANCH  24  27
ENDBRANCH  13  22
TORSDOF 6
