REMARK  Name = CHEMBL331465
REMARK  6 active torsions:
REMARK  status: ('A' for Active; 'I' for Inactive)
REMARK    1  A    between atoms: C_4  and  C_7
REMARK    2  A    between atoms: C_14  and  C_16
REMARK    3  A    between atoms: C_19  and  O_22
REMARK    4  A    between atoms: O_22  and  C_23
REMARK    5  A    between atoms: C_23  and  C_24
REMARK    6  A    between atoms: C_24  and  N_25
REMARK                            x       y       z     vdW  Elec       q    Type
REMARK                         _______ _______ _______ _____ _____    ______ ____
ROOT
ATOM      1  C   UNL     1       6.078  -4.543   3.137  0.00  0.00    -0.015 A 
ATOM      2  C   UNL     1       6.296  -5.732   2.444  0.00  0.00    +0.012 A 
ATOM      3  C   UNL     1       6.880  -6.805   3.084  0.00  0.00    +0.046 A 
ATOM      4  C   UNL     1       7.250  -6.702   4.418  0.00  0.00    +0.120 A 
ATOM      5  C   UNL     1       7.035  -5.519   5.111  0.00  0.00    +0.046 A 
ATOM      6  C   UNL     1       6.456  -4.440   4.475  0.00  0.00    +0.012 A 
ENDROOT
BRANCH   1  14
ATOM      7  C   UNL     1       3.902  -0.190   0.429  0.00  0.00    +0.046 A 
ATOM      8  C   UNL     1       4.948   0.012  -0.478  0.00  0.00    +0.145 A 
ATOM      9  N   UNL     1       5.880  -0.884  -0.258  0.00  0.00    -0.173 NA
ATOM     10  N   UNL     1       5.484  -1.709   0.800  0.00  0.00    -0.221 N 
ATOM     11  C   UNL     1       4.258  -1.279   1.236  0.00  0.00    +0.163 A 
ATOM     12  N   UNL     1       3.638  -1.888   2.252  0.00  0.00    -0.235 NA
ATOM     13  C   UNL     1       4.187  -2.911   2.863  0.00  0.00    +0.123 A 
ATOM     14  C   UNL     1       5.451  -3.387   2.451  0.00  0.00    +0.018 A 
ATOM     15  C   UNL     1       6.085  -2.773   1.407  0.00  0.00    +0.124 A 
BRANCH   7  19
ATOM     16  C   UNL     1       0.322   2.084   0.698  0.00  0.00    +0.000 A 
ATOM     17  C   UNL     1       1.546   2.728   0.660  0.00  0.00    +0.001 A 
ATOM     18  C   UNL     1       2.712   1.995   0.573  0.00  0.00    +0.008 A 
ATOM     19  C   UNL     1       2.655   0.603   0.524  0.00  0.00    -0.013 A 
ATOM     20  C   UNL     1       1.418  -0.041   0.563  0.00  0.00    +0.008 A 
ATOM     21  C   UNL     1       0.259   0.703   0.650  0.00  0.00    +0.001 A 
ENDBRANCH   7  19
ENDBRANCH   1  14
BRANCH   4  22
ATOM     22  O   UNL     1       7.825  -7.761   5.046  0.00  0.00    -0.494 OA
BRANCH  22  23
ATOM     23  C   UNL     1       8.181  -7.586   6.419  0.00  0.00    +0.210 C 
BRANCH  23  24
ATOM     24  C   UNL     1       8.809  -8.875   6.952  0.00  0.00    -0.037 C 
BRANCH  24  25
ATOM     25  N   UNL     1      10.061  -9.143   6.232  0.00  0.00    +0.385 N 
ATOM     26  C   UNL     1      10.590 -10.452   6.640  0.00  0.00    -0.050 C 
ATOM     27  C   UNL     1      11.895 -10.729   5.888  0.00  0.00    +0.141 C 
ATOM     28  O   UNL     1      12.827  -9.679   6.158  0.00  0.00    -0.383 OA
ATOM     29  C   UNL     1      12.347  -8.380   5.799  0.00  0.00    +0.141 C 
ATOM     30  C   UNL     1      11.043  -8.098   6.551  0.00  0.00    -0.050 C 
ATOM     31  H   UNL     1       9.884  -9.147   5.238  0.00  0.00    -0.081 HD
ENDBRANCH  24  25
ENDBRANCH  23  24
ENDBRANCH  22  23
ENDBRANCH   4  22
TORSDOF 6
