REMARK  Name = CHEMBL268826
REMARK  6 active torsions:
REMARK  status: ('A' for Active; 'I' for Inactive)
REMARK    1  A    between atoms: C_1  and  C_2
REMARK    2  A    between atoms: C_6  and  N_8
REMARK    3  A    between atoms: N_11  and  C_12
REMARK    4  A    between atoms: C_15  and  C_18
REMARK    5  A    between atoms: C_23  and  N_33
REMARK    6  A    between atoms: C_26  and  C_27
REMARK                            x       y       z     vdW  Elec       q    Type
REMARK                         _______ _______ _______ _____ _____    ______ ____
ROOT
ATOM      1  C   UNL     1      -0.489  -6.264   2.440  0.00  0.00    +0.035 A 
ATOM      2  C   UNL     1       0.050  -7.000   1.392  0.00  0.00    +0.024 A 
ATOM      3  C   UNL     1       0.102  -8.376   1.470  0.00  0.00    +0.010 A 
ATOM      4  C   UNL     1      -0.386  -9.028   2.602  0.00  0.00    -0.017 A 
ATOM      5  C   UNL     1      -0.925  -8.286   3.652  0.00  0.00    +0.010 A 
ATOM      6  C   UNL     1      -0.970  -6.910   3.572  0.00  0.00    +0.024 A 
ENDROOT
BRANCH   4   7
ATOM      7  C   UNL     1      -0.332 -10.507   2.688  0.00  0.00    +0.000 A 
ATOM      8  C   UNL     1      -1.460 -11.227   2.889  0.00  0.00    +0.055 A 
ATOM      9  S   UNL     1      -0.879 -12.912   2.915  0.00  0.00    -0.095 S 
ATOM     10  C   UNL     1       0.849 -12.614   2.659  0.00  0.00    +0.032 A 
ATOM     11  C   UNL     1       0.939 -11.213   2.551  0.00  0.00    +0.035 A 
ATOM     12  C   UNL     1       2.241 -10.691   2.332  0.00  0.00    +0.103 A 
ATOM     13  N   UNL     1       3.287 -11.485   2.233  0.00  0.00    -0.349 N 
ATOM     14  C   UNL     1       3.212 -12.801   2.327  0.00  0.00    +0.093 A 
ATOM     15  C   UNL     1       1.984 -13.416   2.553  0.00  0.00    +0.013 A 
ATOM     16  H   UNL     1       4.157 -11.083   2.082  0.00  0.00    +0.167 HD
BRANCH  15  17
ATOM     17  C   UNL     1       1.884 -14.890   2.661  0.00  0.00    -0.013 A 
ATOM     18  C   UNL     1       1.193 -15.488   3.720  0.00  0.00    +0.028 A 
ATOM     19  C   UNL     1       1.123 -16.864   3.782  0.00  0.00    +0.111 A 
ATOM     20  N   UNL     1       1.698 -17.613   2.860  0.00  0.00    -0.263 NA
ATOM     21  C   UNL     1       2.359 -17.090   1.844  0.00  0.00    +0.111 A 
ATOM     22  C   UNL     1       2.472 -15.723   1.703  0.00  0.00    +0.028 A 
ENDBRANCH  15  17
BRANCH  12  23
ATOM     23  N   UNL     1       2.414  -9.320   2.220  0.00  0.00    -0.344 N 
ATOM     24  H   UNL     1       1.797  -8.715   2.662  0.00  0.00    +0.144 HD
ATOM     25  H   UNL     1       3.152  -8.965   1.701  0.00  0.00    +0.144 HD
ENDBRANCH  12  23
ENDBRANCH   4   7
BRANCH   1  29
ATOM     26  N   UNL     1      -0.689  -2.925   1.071  0.00  0.00    -0.269 N 
ATOM     27  C   UNL     1      -0.737  -4.269   1.167  0.00  0.00    +0.308 C 
ATOM     28  O   UNL     1      -0.957  -4.941   0.178  0.00  0.00    -0.252 OA
ATOM     29  N   UNL     1      -0.541  -4.867   2.358  0.00  0.00    -0.269 N 
ATOM     30  H   UNL     1      -0.445  -2.393   1.844  0.00  0.00    +0.156 HD
ATOM     31  H   UNL     1      -0.435  -4.330   3.159  0.00  0.00    +0.156 HD
BRANCH  26  37
ATOM     32  C   UNL     1       0.067   0.762  -2.092  0.00  0.00    +0.044 C 
ATOM     33  C   UNL     1      -0.640  -0.510  -1.701  0.00  0.00    -0.049 A 
ATOM     34  C   UNL     1      -1.590  -1.060  -2.543  0.00  0.00    +0.003 A 
ATOM     35  C   UNL     1      -2.241  -2.227  -2.188  0.00  0.00    +0.002 A 
ATOM     36  C   UNL     1      -1.945  -2.848  -0.990  0.00  0.00    +0.023 A 
ATOM     37  C   UNL     1      -0.992  -2.299  -0.143  0.00  0.00    +0.035 A 
ATOM     38  C   UNL     1      -0.335  -1.129  -0.505  0.00  0.00    +0.026 A 
ENDBRANCH  26  37
ENDBRANCH   1  29
TORSDOF 5
