REMARK  Name = CHEMBL150826
REMARK  10 active torsions:
REMARK  status: ('A' for Active; 'I' for Inactive)
REMARK    1  A    between atoms: C_1  and  O_2
REMARK    2  A    between atoms: O_2  and  C_3
REMARK    3  A    between atoms: C_3  and  C_4
REMARK    4  A    between atoms: C_4  and  O_5
REMARK    5  A    between atoms: O_5  and  C_6
REMARK    6  A    between atoms: C_11  and  O_12
REMARK    7  A    between atoms: O_12  and  C_13
REMARK    8  A    between atoms: C_14  and  N_18
REMARK    9  A    between atoms: N_18  and  C_19
REMARK   10  A    between atoms: C_21  and  O_27
REMARK                            x       y       z     vdW  Elec       q    Type
REMARK                         _______ _______ _______ _____ _____    ______ ____
ROOT
ATOM      1  C   UNL     1      -0.698  -4.234  -2.350  0.00  0.00    +0.164 A 
ATOM      2  C   UNL     1       0.319  -5.055  -1.955  0.00  0.00    +0.079 A 
ATOM      3  C   UNL     1       0.028  -6.347  -1.492  0.00  0.00    +0.099 A 
ATOM      4  C   UNL     1      -1.323  -6.777  -1.443  0.00  0.00    +0.028 A 
ATOM      5  C   UNL     1      -2.346  -5.916  -1.854  0.00  0.00    +0.061 A 
ATOM      6  C   UNL     1      -2.033  -4.661  -2.295  0.00  0.00    +0.162 A 
ATOM      7  C   UNL     1      -1.587  -8.085  -0.971  0.00  0.00    +0.061 A 
ATOM      8  C   UNL     1      -0.498  -8.854  -0.588  0.00  0.00    +0.158 A 
ATOM      9  N   UNL     1       0.729  -8.366  -0.669  0.00  0.00    -0.155 NA
ATOM     10  N   UNL     1       0.993  -7.184  -1.094  0.00  0.00    -0.149 NA
ENDROOT
BRANCH   6  11
ATOM     11  O   UNL     1      -3.025  -3.820  -2.690  0.00  0.00    -0.491 OA
ATOM     12  C   UNL     1      -4.364  -4.313  -2.610  0.00  0.00    +0.277 C 
ENDBRANCH   6  11
BRANCH   7  13
ATOM     13  N   UNL     1      -2.882  -8.577  -0.893  0.00  0.00    -0.310 N 
ATOM     14  H   UNL     1      -3.622  -8.054  -1.240  0.00  0.00    +0.152 HD
BRANCH  13  15
ATOM     15  C   UNL     1      -3.122  -9.828  -0.314  0.00  0.00    +0.071 A 
ATOM     16  C   UNL     1      -2.469 -10.189   0.856  0.00  0.00    +0.073 A 
ATOM     17  C   UNL     1      -2.709 -11.428   1.428  0.00  0.00    +0.137 A 
ATOM     18  C   UNL     1      -3.601 -12.308   0.829  0.00  0.00    +0.085 A 
ATOM     19  C   UNL     1      -4.251 -11.948  -0.338  0.00  0.00    +0.064 A 
ATOM     20  C   UNL     1      -4.019 -10.710  -0.908  0.00  0.00    +0.146 A 
ATOM     21  F   UNL     1      -4.659 -10.359  -2.045  0.00  0.00    -0.203 F 
ATOM     22 CL   UNL     1      -3.900 -13.861   1.545  0.00  0.00    -0.080 Cl
BRANCH  17  23
ATOM     23  O   UNL     1      -2.070 -11.784   2.574  0.00  0.00    -0.505 OA
ATOM     24  H   UNL     1      -2.545 -11.540   3.381  0.00  0.00    +0.292 HD
ENDBRANCH  17  23
ENDBRANCH  13  15
ENDBRANCH   7  13
BRANCH   1  25
ATOM     25  O   UNL     1      -0.413  -2.983  -2.799  0.00  0.00    -0.486 OA
BRANCH  25  26
ATOM     26  C   UNL     1       0.965  -2.604  -2.832  0.00  0.00    +0.257 C 
BRANCH  26  27
ATOM     27  C   UNL     1       1.087  -1.174  -3.361  0.00  0.00    +0.200 C 
BRANCH  27  29
ATOM     28  C   UNL     1       0.529   1.099  -2.843  0.00  0.00    +0.194 C 
ATOM     29  O   UNL     1       0.470  -0.271  -2.441  0.00  0.00    -0.380 OA
ENDBRANCH  27  29
ENDBRANCH  26  27
ENDBRANCH  25  26
ENDBRANCH   1  25
TORSDOF 8
