REMARK  Name = CHEMBL198862
REMARK  12 active torsions:
REMARK  status: ('A' for Active; 'I' for Inactive)
REMARK    1  A    between atoms: C_1  and  O_2
REMARK    2  A    between atoms: O_2  and  C_3
REMARK    3  A    between atoms: C_8  and  O_9
REMARK    4  A    between atoms: O_9  and  C_10
REMARK    5  A    between atoms: C_10  and  C_11
REMARK    6  A    between atoms: C_11  and  C_12
REMARK    7  A    between atoms: C_12  and  N_13
REMARK    8  A    between atoms: C_21  and  N_22
REMARK    9  A    between atoms: C_26  and  O_30
REMARK   10  A    between atoms: O_30  and  C_31
REMARK   11  A    between atoms: C_31  and  C_32
REMARK   12  A    between atoms: C_31  and  C_34
REMARK                            x       y       z     vdW  Elec       q    Type
REMARK                         _______ _______ _______ _____ _____    ______ ____
ROOT
ATOM      1  C   UNL     1       0.501  -1.118   1.570  0.00  0.00    +0.162 A 
ATOM      2  C   UNL     1       1.094  -0.238   2.432  0.00  0.00    +0.063 A 
ATOM      3  C   UNL     1       1.722  -0.719   3.585  0.00  0.00    +0.048 A 
ATOM      4  C   UNL     1       1.738  -2.114   3.851  0.00  0.00    +0.080 A 
ATOM      5  C   UNL     1       1.123  -2.993   2.949  0.00  0.00    +0.078 A 
ATOM      6  C   UNL     1       0.511  -2.497   1.833  0.00  0.00    +0.164 A 
ATOM      7  N   UNL     1       2.345  -2.549   4.962  0.00  0.00    -0.235 NA
ATOM      8  C   UNL     1       2.914  -1.702   5.788  0.00  0.00    +0.224 A 
ATOM      9  N   UNL     1       2.926  -0.396   5.587  0.00  0.00    -0.216 NA
ATOM     10  C   UNL     1       2.353   0.147   4.516  0.00  0.00    +0.164 A 
ENDROOT
BRANCH  10  11
ATOM     11  N   UNL     1       2.371   1.493   4.318  0.00  0.00    -0.228 NA
ATOM     12  C   UNL     1       1.377   2.226   4.733  0.00  0.00    +0.098 C 
ATOM     13  C   UNL     1       1.265   3.703   4.390  0.00  0.00    +0.142 C 
ATOM     14  C   UNL     1      -0.138   3.929   3.868  0.00  0.00    +0.203 C 
ATOM     15  C   UNL     1      -1.272   3.247   4.520  0.00  0.00    +0.169 C 
ATOM     16  C   UNL     1      -1.081   2.168   5.319  0.00  0.00    +0.102 C 
ATOM     17  C   UNL     1       0.277   1.668   5.567  0.00  0.00    +0.204 C 
ATOM     18  O   UNL     1       0.493   0.832   6.424  0.00  0.00    -0.286 OA
ATOM     19  O   UNL     1      -0.328   4.662   2.926  0.00  0.00    -0.288 OA
BRANCH  15  20
ATOM     20  O   UNL     1      -2.529   3.707   4.317  0.00  0.00    -0.468 OA
BRANCH  20  21
ATOM     21  C   UNL     1      -3.598   2.939   4.873  0.00  0.00    +0.278 C 
BRANCH  21  22
ATOM     22  C   UNL     1      -4.867   3.218   4.108  0.00  0.00    +0.005 A 
ATOM     23  C   UNL     1      -5.105   4.482   3.602  0.00  0.00    +0.008 A 
ATOM     24  C   UNL     1      -6.268   4.738   2.901  0.00  0.00    +0.000 A 
ATOM     25  C   UNL     1      -7.193   3.729   2.704  0.00  0.00    +0.000 A 
ATOM     26  C   UNL     1      -6.954   2.465   3.209  0.00  0.00    +0.000 A 
ATOM     27  C   UNL     1      -5.789   2.208   3.907  0.00  0.00    +0.008 A 
ENDBRANCH  21  22
BRANCH  21  28
ATOM     28  C   UNL     1      -3.786   3.308   6.285  0.00  0.00    -0.057 C 
ATOM     29  C   UNL     1      -3.936   3.603   7.412  0.00  0.00    +0.008 C 
ENDBRANCH  21  28
ENDBRANCH  20  21
ENDBRANCH  15  20
ENDBRANCH  10  11
BRANCH   1  31
ATOM     30  C   UNL     1      -0.085   0.761   0.237  0.00  0.00    +0.277 C 
ATOM     31  O   UNL     1      -0.109  -0.652   0.449  0.00  0.00    -0.491 OA
ENDBRANCH   1  31
BRANCH   6  32
ATOM     32  O   UNL     1      -0.090  -3.349   0.963  0.00  0.00    -0.488 OA
BRANCH  32  33
ATOM     33  C   UNL     1      -0.048  -4.741   1.284  0.00  0.00    +0.227 C 
BRANCH  33  34
ATOM     34  C   UNL     1      -0.771  -5.538   0.197  0.00  0.00    +0.022 C 
BRANCH  34  35
ATOM     35  C   UNL     1      -0.726  -7.028   0.541  0.00  0.00    -0.076 C 
BRANCH  35  36
ATOM     36  N   UNL     1      -1.421  -7.793  -0.503  0.00  0.00    +0.380 N 
ATOM     37  C   UNL     1      -0.650  -7.745  -1.772  0.00  0.00    -0.079 C 
ATOM     38  C   UNL     1      -1.161  -8.987  -2.544  0.00  0.00    -0.020 C 
ATOM     39  C   UNL     1      -1.347 -10.038  -1.425  0.00  0.00    -0.020 C 
ATOM     40  C   UNL     1      -1.490  -9.222  -0.127  0.00  0.00    -0.079 C 
ATOM     41  H   UNL     1      -2.349  -7.425  -0.645  0.00  0.00    -0.082 HD
ENDBRANCH  35  36
ENDBRANCH  34  35
ENDBRANCH  33  34
ENDBRANCH  32  33
ENDBRANCH   6  32
TORSDOF 11
