REMARK  Name = CHEMBL259252
REMARK  8 active torsions:
REMARK  status: ('A' for Active; 'I' for Inactive)
REMARK    1  A    between atoms: C_1  and  O_2
REMARK    2  A    between atoms: O_2  and  C_3
REMARK    3  A    between atoms: C_6  and  O_15
REMARK    4  A    between atoms: C_12  and  O_13
REMARK    5  A    between atoms: O_13  and  C_14
REMARK    6  A    between atoms: O_15  and  C_16
REMARK    7  A    between atoms: C_25  and  C_26
REMARK    8  A    between atoms: N_28  and  C_29
REMARK                            x       y       z     vdW  Elec       q    Type
REMARK                         _______ _______ _______ _____ _____    ______ ____
ROOT
ATOM      1  C   UNL     1      -5.957   2.244  -0.060  0.00  0.00    +0.129 A 
ATOM      2  C   UNL     1      -7.189   1.584  -0.010  0.00  0.00    +0.047 A 
ATOM      3  C   UNL     1      -8.357   2.283  -0.009  0.00  0.00    +0.013 A 
ATOM      4  C   UNL     1      -8.330   3.683  -0.060  0.00  0.00    -0.006 A 
ATOM      5  C   UNL     1      -7.085   4.357  -0.110  0.00  0.00    -0.014 A 
ATOM      6  C   UNL     1      -5.896   3.609  -0.104  0.00  0.00    +0.054 A 
ATOM      7  C   UNL     1      -7.059   5.762  -0.160  0.00  0.00    +0.008 A 
ATOM      8  C   UNL     1      -8.225   6.468  -0.159  0.00  0.00    +0.001 A 
ATOM      9  C   UNL     1      -9.455   5.825  -0.110  0.00  0.00    +0.013 A 
ATOM     10  C   UNL     1      -9.528   4.441  -0.061  0.00  0.00    +0.044 A 
ENDROOT
BRANCH  10  11
ATOM     11  C   UNL     1     -10.838   3.765  -0.009  0.00  0.00    +0.245 C 
ATOM     12  O   UNL     1     -10.895   2.560   0.147  0.00  0.00    -0.270 OA
ATOM     13  N   UNL     1     -11.972   4.482  -0.135  0.00  0.00    -0.308 N 
ATOM     14  H   UNL     1     -11.927   5.443  -0.259  0.00  0.00    +0.149 HD
BRANCH  13  15
ATOM     15  C   UNL     1     -13.273   3.811  -0.083  0.00  0.00    +0.073 C 
ATOM     16  C   UNL     1     -13.977   3.727  -1.448  0.00  0.00    +0.022 C 
ATOM     17  C   UNL     1     -15.286   4.037  -0.703  0.00  0.00    +0.004 C 
ATOM     18  C   UNL     1     -14.422   4.728   0.365  0.00  0.00    +0.022 C 
ENDBRANCH  13  15
ENDBRANCH  10  11
BRANCH   1  19
ATOM     19  O   UNL     1      -4.807   1.521  -0.059  0.00  0.00    -0.455 OA
BRANCH  19  23
ATOM     20  C   UNL     1      -1.144  -0.520  -0.358  0.00  0.00    +0.162 A 
ATOM     21  C   UNL     1      -2.325   0.152  -0.225  0.00  0.00    +0.063 A 
ATOM     22  C   UNL     1      -3.217   0.209  -1.307  0.00  0.00    +0.044 A 
ATOM     23  C   UNL     1      -4.448   0.895  -1.207  0.00  0.00    +0.139 A 
ATOM     24  C   UNL     1      -5.275   0.908  -2.315  0.00  0.00    +0.064 A 
ATOM     25  C   UNL     1      -4.880   0.258  -3.478  0.00  0.00    +0.086 A 
ATOM     26  N   UNL     1      -3.735  -0.377  -3.560  0.00  0.00    -0.360 N 
ATOM     27  C   UNL     1      -2.886  -0.430  -2.527  0.00  0.00    +0.054 A 
ATOM     28  C   UNL     1      -1.663  -1.114  -2.632  0.00  0.00    +0.075 A 
ATOM     29  C   UNL     1      -0.811  -1.149  -1.566  0.00  0.00    +0.163 A 
ATOM     30  H   UNL     1      -3.498  -0.819  -4.390  0.00  0.00    +0.165 HD
BRANCH  20  32
ATOM     31  C   UNL     1      -0.676   0.085   1.893  0.00  0.00    +0.277 C 
ATOM     32  O   UNL     1      -0.280  -0.575   0.690  0.00  0.00    -0.491 OA
ENDBRANCH  20  32
BRANCH  29  33
ATOM     33  O   UNL     1       0.373  -1.807  -1.676  0.00  0.00    -0.491 OA
ATOM     34  C   UNL     1       0.656  -2.428  -2.931  0.00  0.00    +0.277 C 
ENDBRANCH  29  33
ENDBRANCH  19  23
ENDBRANCH   1  19
TORSDOF 6
