REMARK  Name = CHEMBL258396
REMARK  9 active torsions:
REMARK  status: ('A' for Active; 'I' for Inactive)
REMARK    1  A    between atoms: C_1  and  N_2
REMARK    2  A    between atoms: C_3  and  C_7
REMARK    3  A    between atoms: C_12  and  O_16
REMARK    4  A    between atoms: O_16  and  C_17
REMARK    5  A    between atoms: C_20  and  N_24
REMARK    6  A    between atoms: N_24  and  C_25
REMARK    7  A    between atoms: C_25  and  N_27
REMARK    8  A    between atoms: C_28  and  C_30
REMARK    9  A    between atoms: C_30  and  C_31
REMARK                            x       y       z     vdW  Elec       q    Type
REMARK                         _______ _______ _______ _____ _____    ______ ____
ROOT
ATOM      1  C   UNL     1      -0.670   3.458  -7.269  0.00  0.00    +0.164 A 
ATOM      2  C   UNL     1      -0.841   2.665  -8.393  0.00  0.00    +0.051 A 
ATOM      3  C   UNL     1      -0.916   3.246  -9.644  0.00  0.00    +0.027 A 
ATOM      4  C   UNL     1      -0.820   4.625  -9.777  0.00  0.00    +0.036 A 
ATOM      5  C   UNL     1      -0.649   5.420  -8.652  0.00  0.00    +0.065 A 
ATOM      6  C   UNL     1      -0.580   4.838  -7.399  0.00  0.00    +0.167 A 
ATOM      7  F   UNL     1      -0.419   5.612  -6.303  0.00  0.00    -0.202 F 
ENDROOT
BRANCH   4   8
ATOM      8  N   UNL     1      -0.895   5.213 -11.045  0.00  0.00    -0.297 N 
ATOM      9  H   UNL     1      -0.256   5.896 -11.302  0.00  0.00    +0.154 HD
BRANCH   8  10
ATOM     10  C   UNL     1      -1.856   4.831 -11.910  0.00  0.00    +0.141 C 
ATOM     11  S   UNL     1      -2.911   3.545 -11.503  0.00  0.00    -0.018 S 
BRANCH  10  12
ATOM     12  N   UNL     1      -1.986   5.460 -13.095  0.00  0.00    -0.267 N 
ATOM     13  C   UNL     1      -2.946   5.077 -13.959  0.00  0.00    +0.223 C 
ATOM     14  O   UNL     1      -3.693   4.167 -13.671  0.00  0.00    -0.275 OA
ATOM     15  H   UNL     1      -1.388   6.188 -13.325  0.00  0.00    +0.157 HD
BRANCH  13  16
ATOM     16  C   UNL     1      -3.091   5.780 -15.284  0.00  0.00    +0.131 C 
BRANCH  16  17
ATOM     17  C   UNL     1      -4.230   5.166 -16.057  0.00  0.00    -0.039 A 
ATOM     18  C   UNL     1      -3.994   4.100 -16.904  0.00  0.00    +0.004 A 
ATOM     19  C   UNL     1      -5.039   3.536 -17.613  0.00  0.00    +0.000 A 
ATOM     20  C   UNL     1      -6.319   4.038 -17.474  0.00  0.00    +0.000 A 
ATOM     21  C   UNL     1      -6.555   5.104 -16.625  0.00  0.00    +0.000 A 
ATOM     22  C   UNL     1      -5.511   5.665 -15.914  0.00  0.00    +0.004 A 
ENDBRANCH  16  17
ENDBRANCH  13  16
ENDBRANCH  10  12
ENDBRANCH   8  10
ENDBRANCH   4   8
BRANCH   1  23
ATOM     23  O   UNL     1      -0.597   2.885  -6.037  0.00  0.00    -0.452 OA
BRANCH  23  29
ATOM     24  C   UNL     1      -1.593   0.943  -1.693  0.00  0.00    +0.059 A 
ATOM     25  C   UNL     1      -2.750   1.593  -1.986  0.00  0.00    +0.047 A 
ATOM     26  C   UNL     1      -2.870   2.302  -3.196  0.00  0.00    +0.082 A 
ATOM     27  C   UNL     1      -1.730   2.272  -4.029  0.00  0.00    +0.080 A 
ATOM     28  S   UNL     1      -0.570   1.291  -3.114  0.00  0.00    -0.080 S 
ATOM     29  C   UNL     1      -1.701   2.924  -5.249  0.00  0.00    +0.146 A 
ATOM     30  C   UNL     1      -2.840   3.622  -5.643  0.00  0.00    +0.067 A 
ATOM     31  C   UNL     1      -3.937   3.626  -4.796  0.00  0.00    +0.115 A 
ATOM     32  N   UNL     1      -3.937   3.001  -3.647  0.00  0.00    -0.254 NA
BRANCH  24  35
ATOM     33  C   UNL     1       0.795  -1.013  -1.375  0.00  0.00    +0.174 C 
ATOM     34  N   UNL     1      -0.217  -0.701  -0.363  0.00  0.00    -0.248 N 
ATOM     35  C   UNL     1      -1.262   0.151  -0.494  0.00  0.00    +0.165 A 
ATOM     36  N   UNL     1      -1.931   0.145   0.643  0.00  0.00    -0.214 NA
ATOM     37  C   UNL     1      -1.348  -0.685   1.502  0.00  0.00    +0.245 A 
ATOM     38  N   UNL     1      -0.303  -1.230   0.935  0.00  0.00    -0.158 NA
ENDBRANCH  24  35
ENDBRANCH  23  29
ENDBRANCH   1  23
TORSDOF 8
