REMARK  Name = CHEMBL204163
REMARK  3 active torsions:
REMARK  status: ('A' for Active; 'I' for Inactive)
REMARK    1  A    between atoms: C_2  and  N_15
REMARK    2  A    between atoms: C_11  and  N_14
REMARK    3  A    between atoms: C_19  and  C_21
REMARK                            x       y       z     vdW  Elec       q    Type
REMARK                         _______ _______ _______ _____ _____    ______ ____
ROOT
ATOM      1  C   UNL     1      -2.438   1.250   0.019  0.00  0.00    +0.085 A 
ATOM      2  C   UNL     1      -2.300  -0.134   0.011  0.00  0.00    +0.129 A 
ATOM      3  N   UNL     1      -1.077  -0.662   0.024  0.00  0.00    -0.222 NA
ATOM      4  C   UNL     1      -0.009   0.107   0.045  0.00  0.00    +0.199 A 
ATOM      5  N   UNL     1      -0.097   1.422   0.055  0.00  0.00    -0.334 N 
ATOM      6  C   UNL     1      -1.283   2.027   0.036  0.00  0.00    +0.103 A 
ATOM      7  N   UNL     1      -1.366   3.411   0.045  0.00  0.00    -0.317 N 
ATOM      8  C   UNL     1      -0.123   4.196  -0.085  0.00  0.00    +0.106 C 
ATOM      9  C   UNL     1      -0.292   5.399  -1.029  0.00  0.00    +0.017 C 
ATOM     10  C   UNL     1      -1.121   5.006  -2.227  0.00  0.00    -0.015 C 
ATOM     11  C   UNL     1      -2.591   5.300  -1.944  0.00  0.00    -0.074 C 
ATOM     12  C   UNL     1      -3.294   4.230  -1.220  0.00  0.00    +0.003 C 
ATOM     13  C   UNL     1      -2.668   4.026   0.176  0.00  0.00    +0.105 C 
ATOM     14  H   UNL     1       0.713   1.956   0.071  0.00  0.00    +0.168 HD
ENDROOT
BRANCH   2  15
ATOM     15  N   UNL     1      -3.421  -0.953  -0.011  0.00  0.00    -0.279 N 
ATOM     16  C   UNL     1      -3.274  -2.322  -0.126  0.00  0.00    +0.165 A 
ATOM     17  N   UNL     1      -2.157  -3.027  -0.129  0.00  0.00    -0.232 NA
ATOM     18  C   UNL     1      -2.172  -4.332  -0.246  0.00  0.00    +0.139 A 
ATOM     19  C   UNL     1      -3.420  -4.926  -0.366  0.00  0.00    +0.110 A 
ATOM     20  S   UNL     1      -4.477  -3.489  -0.287  0.00  0.00    -0.042 S 
ATOM     21  H   UNL     1      -4.307  -0.564   0.053  0.00  0.00    +0.155 HD
BRANCH  19  22
ATOM     22  C   UNL     1      -3.765  -6.308  -0.508  0.00  0.00    +0.108 C 
ATOM     23  N   UNL     1      -4.039  -7.405  -0.621  0.00  0.00    -0.190 NA
ENDBRANCH  19  22
ENDBRANCH   2  15
BRANCH  11  24
ATOM     24  N   UNL     1      -3.276   5.526  -3.223  0.00  0.00    +0.380 N 
ATOM     25  H   UNL     1      -3.195   4.702  -3.799  0.00  0.00    -0.090 HD
ATOM     26  H   UNL     1      -4.251   5.722  -3.053  0.00  0.00    -0.090 HD
ATOM     27  H   UNL     1      -2.853   6.311  -3.697  0.00  0.00    -0.090 HD
ENDBRANCH  11  24
TORSDOF 3
