REMARK  Name = CHEMBL230003
REMARK  11 active torsions:
REMARK  status: ('A' for Active; 'I' for Inactive)
REMARK    1  A    between atoms: C_1  and  N_2
REMARK    2  A    between atoms: C_6  and  C_8
REMARK    3  A    between atoms: C_8  and  O_9
REMARK    4  A    between atoms: O_9  and  C_10
REMARK    5  A    between atoms: C_12  and  N_17
REMARK    6  A    between atoms: C_22  and  O_27
REMARK    7  A    between atoms: O_27  and  C_28
REMARK    8  A    between atoms: C_31  and  O_40
REMARK    9  A    between atoms: C_32  and  O_38
REMARK   10  A    between atoms: O_38  and  C_39
REMARK   11  A    between atoms: O_40  and  C_41
REMARK                            x       y       z     vdW  Elec       q    Type
REMARK                         _______ _______ _______ _____ _____    ______ ____
ROOT
ATOM      1  N   UNL     1       6.981  -1.515   0.048  0.00  0.00    -0.269 N 
ATOM      2  C   UNL     1       8.221  -2.011  -0.288  0.00  0.00    +0.293 A 
ATOM      3  N   UNL     1       9.359  -1.567   0.182  0.00  0.00    -0.195 NA
ATOM      4  C   UNL     1      10.371  -2.291  -0.369  0.00  0.00    +0.115 A 
ATOM      5  C   UNL     1      11.760  -2.259  -0.237  0.00  0.00    +0.078 A 
ATOM      6  C   UNL     1      12.537  -3.151  -0.952  0.00  0.00    +0.133 A 
ATOM      7  C   UNL     1      11.939  -4.078  -1.800  0.00  0.00    +0.050 A 
ATOM      8  C   UNL     1      10.567  -4.116  -1.937  0.00  0.00    +0.052 A 
ATOM      9  C   UNL     1       9.775  -3.229  -1.226  0.00  0.00    +0.157 A 
ATOM     10  O   UNL     1       8.439  -3.026  -1.143  0.00  0.00    -0.424 OA
ATOM     11  H   UNL     1       6.909  -0.723   0.603  0.00  0.00    +0.157 HD
ENDROOT
BRANCH   1  14
ATOM     12  C   UNL     1       3.503  -2.071  -1.018  0.00  0.00    +0.140 A 
ATOM     13  C   UNL     1       4.647  -1.435  -0.563  0.00  0.00    +0.070 A 
ATOM     14  C   UNL     1       5.824  -2.154  -0.411  0.00  0.00    +0.038 A 
ATOM     15  C   UNL     1       5.853  -3.509  -0.715  0.00  0.00    +0.025 A 
ATOM     16  C   UNL     1       4.711  -4.141  -1.169  0.00  0.00    +0.025 A 
ATOM     17  C   UNL     1       3.535  -3.427  -1.316  0.00  0.00    +0.083 A 
ATOM     18 CL   UNL     1       2.101  -4.226  -1.880  0.00  0.00    -0.080 Cl
BRANCH  12  19
ATOM     19  O   UNL     1       2.348  -1.370  -1.167  0.00  0.00    -0.492 OA
BRANCH  19  20
ATOM     20  C   UNL     1       2.387   0.021  -0.842  0.00  0.00    +0.214 C 
BRANCH  20  26
ATOM     21  C   UNL     1       0.962   1.885  -3.133  0.00  0.00    -0.096 C 
ATOM     22  N   UNL     1       0.653   0.592  -2.506  0.00  0.00    +0.382 N 
ATOM     23  C   UNL     1      -0.789   0.314  -2.627  0.00  0.00    -0.079 C 
ATOM     24  C   UNL     1      -1.346   0.158  -1.196  0.00  0.00    -0.020 C 
ATOM     25  C   UNL     1      -0.085  -0.208  -0.369  0.00  0.00    -0.014 C 
ATOM     26  C   UNL     1       1.006   0.638  -1.071  0.00  0.00    -0.031 C 
ATOM     27  H   UNL     1       1.177  -0.140  -2.962  0.00  0.00    -0.082 HD
ENDBRANCH  20  26
ENDBRANCH  19  20
ENDBRANCH  12  19
ENDBRANCH   1  14
BRANCH   6  28
ATOM     28  O   UNL     1      13.890  -3.123  -0.826  0.00  0.00    -0.437 OA
BRANCH  28  29
ATOM     29  C   UNL     1      14.434  -3.635   0.302  0.00  0.00    +0.231 A 
ATOM     30  C   UNL     1      15.836  -3.727   0.454  0.00  0.00    +0.066 A 
ATOM     31  C   UNL     1      16.721  -3.297  -0.544  0.00  0.00    +0.064 A 
ATOM     32  C   UNL     1      18.067  -3.409  -0.344  0.00  0.00    +0.162 A 
ATOM     33  C   UNL     1      18.572  -3.950   0.848  0.00  0.00    +0.164 A 
ATOM     34  C   UNL     1      17.730  -4.376   1.837  0.00  0.00    +0.078 A 
ATOM     35  C   UNL     1      16.344  -4.273   1.658  0.00  0.00    +0.082 A 
ATOM     36  N   UNL     1      15.477  -4.678   2.599  0.00  0.00    -0.235 NA
ATOM     37  C   UNL     1      14.185  -4.568   2.402  0.00  0.00    +0.225 A 
ATOM     38  N   UNL     1      13.667  -4.059   1.295  0.00  0.00    -0.201 NA
BRANCH  33  39
ATOM     39  O   UNL     1      19.915  -4.050   1.022  0.00  0.00    -0.491 OA
ATOM     40  C   UNL     1      20.369  -4.609   2.257  0.00  0.00    +0.277 C 
ENDBRANCH  33  39
BRANCH  32  41
ATOM     41  O   UNL     1      18.928  -2.993  -1.310  0.00  0.00    -0.491 OA
ATOM     42  C   UNL     1      18.353  -2.452  -2.502  0.00  0.00    +0.277 C 
ENDBRANCH  32  41
ENDBRANCH  28  29
ENDBRANCH   6  28
TORSDOF 8
