REMARK  Name = CHEMBL476572
REMARK  8 active torsions:
REMARK  status: ('A' for Active; 'I' for Inactive)
REMARK    1  A    between atoms: C_1  and  C_2
REMARK    2  A    between atoms: C_6  and  N_18
REMARK    3  A    between atoms: N_10  and  C_11
REMARK    4  A    between atoms: C_11  and  C_12
REMARK    5  A    between atoms: N_18  and  C_19
REMARK    6  A    between atoms: N_26  and  C_27
REMARK    7  A    between atoms: C_31  and  S_33
REMARK    8  A    between atoms: S_33  and  N_36
REMARK                            x       y       z     vdW  Elec       q    Type
REMARK                         _______ _______ _______ _____ _____    ______ ____
ROOT
ATOM      1  N   UNL     1       0.124  -3.360  -3.731  0.00  0.00    -0.288 N 
ATOM      2  C   UNL     1       0.190  -4.683  -3.106  0.00  0.00    +0.137 C 
ATOM      3  C   UNL     1      -0.015  -3.249  -5.106  0.00  0.00    +0.130 A 
ATOM      4  C   UNL     1      -1.279  -3.099  -5.681  0.00  0.00    +0.061 A 
ATOM      5  C   UNL     1      -1.369  -2.991  -7.054  0.00  0.00    +0.089 A 
ATOM      6  N   UNL     1      -0.263  -3.034  -7.782  0.00  0.00    -0.334 N 
ATOM      7  C   UNL     1       0.923  -3.178  -7.210  0.00  0.00    +0.199 A 
ATOM      8  N   UNL     1       1.054  -3.279  -5.896  0.00  0.00    -0.201 NA
ATOM      9  N   UNL     1       2.057  -3.218  -8.006  0.00  0.00    -0.285 N 
ATOM     10  H   UNL     1       1.984  -3.064  -8.961  0.00  0.00    +0.155 HD
ATOM     11  H   UNL     1      -0.322  -2.959  -8.747  0.00  0.00    +0.168 HD
ENDROOT
BRANCH   1  17
ATOM     12  C   UNL     1       0.479   1.685   0.681  0.00  0.00    +0.066 C 
ATOM     13  C   UNL     1       0.431   1.317  -0.779  0.00  0.00    +0.044 A 
ATOM     14  C   UNL     1       0.353   0.036  -1.293  0.00  0.00    +0.023 A 
ATOM     15  C   UNL     1       0.296  -1.257  -0.731  0.00  0.00    +0.013 A 
ATOM     16  C   UNL     1       0.222  -2.339  -1.544  0.00  0.00    +0.024 A 
ATOM     17  C   UNL     1       0.201  -2.209  -2.941  0.00  0.00    +0.037 A 
ATOM     18  C   UNL     1       0.253  -0.990  -3.547  0.00  0.00    +0.053 A 
ATOM     19  C   UNL     1       0.330   0.177  -2.757  0.00  0.00    +0.095 A 
ATOM     20  N   UNL     1       0.393   1.470  -3.017  0.00  0.00    -0.171 NA
ATOM     21  N   UNL     1       0.449   2.174  -1.809  0.00  0.00    -0.263 N 
BRANCH  21  22
ATOM     22  C   UNL     1       0.522   3.633  -1.688  0.00  0.00    +0.179 C 
BRANCH  22  23
ATOM     23  C   UNL     1       1.966   4.065  -1.677  0.00  0.00    -0.026 A 
ATOM     24  C   UNL     1       2.650   4.157  -0.480  0.00  0.00    +0.005 A 
ATOM     25  C   UNL     1       3.975   4.554  -0.470  0.00  0.00    +0.000 A 
ATOM     26  C   UNL     1       4.614   4.857  -1.658  0.00  0.00    +0.000 A 
ATOM     27  C   UNL     1       3.930   4.763  -2.855  0.00  0.00    +0.000 A 
ATOM     28  C   UNL     1       2.607   4.363  -2.865  0.00  0.00    +0.005 A 
ENDBRANCH  22  23
ENDBRANCH  21  22
ENDBRANCH   1  17
BRANCH   9  29
ATOM     29  C   UNL     1       3.305  -3.480  -7.433  0.00  0.00    +0.035 A 
ATOM     30  C   UNL     1       3.403  -4.328  -6.337  0.00  0.00    +0.023 A 
ATOM     31  C   UNL     1       4.637  -4.585  -5.773  0.00  0.00    +0.004 A 
ATOM     32  C   UNL     1       5.774  -3.999  -6.298  0.00  0.00    +0.028 A 
ATOM     33  C   UNL     1       5.680  -3.154  -7.388  0.00  0.00    +0.107 A 
ATOM     34  C   UNL     1       4.449  -2.898  -7.961  0.00  0.00    +0.051 A 
BRANCH  33  35
ATOM     35  S   UNL     1       7.132  -2.410  -8.053  0.00  0.00    +0.056 S 
ATOM     36  O   UNL     1       6.712  -1.234  -8.731  0.00  0.00    -0.153 OA
ATOM     37  O   UNL     1       8.091  -2.383  -7.005  0.00  0.00    -0.153 OA
BRANCH  35  38
ATOM     38  N   UNL     1       7.723  -3.437  -9.209  0.00  0.00    -0.204 NA
ATOM     39  H   UNL     1       7.265  -4.271  -9.398  0.00  0.00    +0.144 HD
ATOM     40  H   UNL     1       8.528  -3.205  -9.698  0.00  0.00    +0.144 HD
ENDBRANCH  35  38
ENDBRANCH  33  35
ENDBRANCH   9  29
TORSDOF 6
