REMARK  Name = CHEMBL193609
REMARK  8 active torsions:
REMARK  status: ('A' for Active; 'I' for Inactive)
REMARK    1  A    between atoms: C_1  and  C_2
REMARK    2  A    between atoms: C_2  and  S_3
REMARK    3  A    between atoms: S_3  and  C_6
REMARK    4  A    between atoms: C_9  and  O_29
REMARK    5  A    between atoms: C_10  and  N_12
REMARK    6  A    between atoms: C_16  and  C_18
REMARK    7  A    between atoms: C_22  and  C_24
REMARK    8  A    between atoms: O_29  and  C_30
REMARK                            x       y       z     vdW  Elec       q    Type
REMARK                         _______ _______ _______ _____ _____    ______ ____
ROOT
ATOM      1  N   UNL     1      -1.359  -5.141  -2.396  0.00  0.00    -0.266 N 
ATOM      2  C   UNL     1      -2.430  -4.461  -2.941  0.00  0.00    +0.292 A 
ATOM      3  N   UNL     1      -2.514  -3.159  -3.085  0.00  0.00    -0.203 NA
ATOM      4  C   UNL     1      -3.695  -2.862  -3.650  0.00  0.00    +0.163 A 
ATOM      5  C   UNL     1      -4.356  -4.028  -3.860  0.00  0.00    +0.157 A 
ATOM      6  O   UNL     1      -3.552  -5.024  -3.417  0.00  0.00    -0.424 OA
ATOM      7  H   UNL     1      -1.355  -6.111  -2.387  0.00  0.00    +0.157 HD
ENDROOT
BRANCH   1  12
ATOM      8  C   UNL     1       0.724  -2.349  -1.214  0.00  0.00    +0.090 A 
ATOM      9  C   UNL     1       1.855  -3.023  -0.790  0.00  0.00    +0.030 A 
ATOM     10  C   UNL     1       1.924  -4.400  -0.898  0.00  0.00    +0.049 A 
ATOM     11  C   UNL     1       0.860  -5.108  -1.431  0.00  0.00    +0.141 A 
ATOM     12  C   UNL     1      -0.280  -4.430  -1.857  0.00  0.00    +0.079 A 
ATOM     13  C   UNL     1      -0.345  -3.049  -1.741  0.00  0.00    +0.054 A 
BRANCH   8  14
ATOM     14  S   UNL     1       0.643  -0.595  -1.074  0.00  0.00    -0.003 S 
ATOM     15  O   UNL     1      -0.272  -0.193  -2.084  0.00  0.00    -0.169 OA
ATOM     16  O   UNL     1       1.997  -0.165  -1.110  0.00  0.00    -0.169 OA
BRANCH  14  18
ATOM     17  C   UNL     1      -0.183   1.218   0.800  0.00  0.00    +0.028 C 
ATOM     18  C   UNL     1      -0.065  -0.290   0.568  0.00  0.00    +0.168 C 
ENDBRANCH  14  18
ENDBRANCH   8  14
BRANCH  11  19
ATOM     19  O   UNL     1       0.927  -6.462  -1.538  0.00  0.00    -0.493 OA
ATOM     20  C   UNL     1       2.127  -7.090  -1.081  0.00  0.00    +0.277 C 
ENDBRANCH  11  19
ENDBRANCH   1  12
BRANCH   5  21
ATOM     21  C   UNL     1      -5.696  -4.182  -4.461  0.00  0.00    +0.019 A 
ATOM     22  C   UNL     1      -6.408  -3.056  -4.884  0.00  0.00    +0.011 A 
ATOM     23  C   UNL     1      -7.661  -3.199  -5.446  0.00  0.00    +0.001 A 
ATOM     24  C   UNL     1      -8.219  -4.454  -5.595  0.00  0.00    +0.009 A 
ATOM     25  C   UNL     1      -7.519  -5.587  -5.176  0.00  0.00    -0.011 A 
ATOM     26  C   UNL     1      -6.252  -5.452  -4.613  0.00  0.00    +0.020 A 
BRANCH  25  27
ATOM     27  C   UNL     1      -8.119  -6.929  -5.335  0.00  0.00    +0.019 A 
ATOM     28  C   UNL     1      -9.332  -7.274  -5.867  0.00  0.00    +0.016 A 
ATOM     29  C   UNL     1      -9.682  -8.606  -5.911  0.00  0.00    +0.008 A 
ATOM     30  C   UNL     1      -8.816  -9.534  -5.427  0.00  0.00    +0.046 A 
ATOM     31  S   UNL     1      -7.446  -8.522  -4.890  0.00  0.00    -0.097 S 
ENDBRANCH  25  27
ENDBRANCH   5  21
TORSDOF 6
