REMARK  Name = CHEMBL205893
REMARK  4 active torsions:
REMARK  status: ('A' for Active; 'I' for Inactive)
REMARK    1  A    between atoms: C_1  and  N_2
REMARK    2  A    between atoms: N_5  and  C_8
REMARK    3  A    between atoms: C_15  and  C_18
REMARK    4  A    between atoms: C_19  and  N_29
REMARK                            x       y       z     vdW  Elec       q    Type
REMARK                         _______ _______ _______ _____ _____    ______ ____
ROOT
ATOM      1  C   UNL     1      -0.944  -3.663   1.727  0.00  0.00    +0.032 A 
ATOM      2  C   UNL     1      -2.261  -4.103   1.614  0.00  0.00    +0.025 A 
ATOM      3  C   UNL     1      -2.735  -5.103   2.437  0.00  0.00    +0.029 A 
ATOM      4  C   UNL     1      -1.898  -5.676   3.384  0.00  0.00    +0.067 A 
ATOM      5  C   UNL     1      -0.568  -5.238   3.505  0.00  0.00    +0.091 A 
ATOM      6  C   UNL     1      -0.096  -4.227   2.661  0.00  0.00    +0.053 A 
ATOM      7  N   UNL     1       0.006  -5.964   4.496  0.00  0.00    -0.227 NA
ATOM      8  C   UNL     1      -0.870  -6.809   4.988  0.00  0.00    +0.146 A 
ATOM      9  N   UNL     1      -2.065  -6.670   4.333  0.00  0.00    -0.338 N 
ATOM     10  H   UNL     1      -2.877  -7.174   4.503  0.00  0.00    +0.167 HD
ENDROOT
BRANCH   8  11
ATOM     11  C   UNL     1      -0.608  -7.763   6.080  0.00  0.00    +0.103 A 
ATOM     12  C   UNL     1       0.611  -7.732   6.760  0.00  0.00    +0.050 A 
ATOM     13  C   UNL     1       0.820  -8.705   7.839  0.00  0.00    +0.023 A 
ATOM     14  C   UNL     1       2.008  -8.750   8.575  0.00  0.00    +0.031 A 
ATOM     15  C   UNL     1       2.128  -9.693   9.574  0.00  0.00    +0.111 A 
ATOM     16  N   UNL     1       1.149 -10.540   9.837  0.00  0.00    -0.261 NA
ATOM     17  C   UNL     1       0.012 -10.538   9.172  0.00  0.00    +0.137 A 
ATOM     18  C   UNL     1      -0.201  -9.622   8.146  0.00  0.00    +0.069 A 
ATOM     19  N   UNL     1      -1.383  -9.600   7.436  0.00  0.00    -0.320 N 
ATOM     20  C   UNL     1      -1.592  -8.712   6.449  0.00  0.00    +0.262 A 
ATOM     21  O   UNL     1      -2.655  -8.727   5.853  0.00  0.00    -0.267 OA
ATOM     22  H   UNL     1      -2.080 -10.237   7.656  0.00  0.00    +0.169 HD
BRANCH  12  23
ATOM     23  N   UNL     1       1.584  -6.821   6.429  0.00  0.00    -0.357 N 
ATOM     24  H   UNL     1       1.401  -6.134   5.770  0.00  0.00    +0.142 HD
ATOM     25  H   UNL     1       2.455  -6.865   6.855  0.00  0.00    +0.142 HD
ENDBRANCH  12  23
ENDBRANCH   8  11
BRANCH   1  30
ATOM     26  C   UNL     1       0.028   1.384  -0.116  0.00  0.00    -0.096 C 
ATOM     27  N   UNL     1       0.047  -0.085  -0.100  0.00  0.00    +0.380 N 
ATOM     28  C   UNL     1      -1.332  -0.591  -0.103  0.00  0.00    -0.060 C 
ATOM     29  C   UNL     1      -1.313  -2.120  -0.202  0.00  0.00    +0.086 C 
ATOM     30  N   UNL     1      -0.475  -2.648   0.886  0.00  0.00    -0.333 N 
ATOM     31  C   UNL     1       0.869  -2.078   1.064  0.00  0.00    +0.086 C 
ATOM     32  C   UNL     1       0.748  -0.551   1.103  0.00  0.00    -0.060 C 
ATOM     33  H   UNL     1       0.528  -0.423  -0.920  0.00  0.00    -0.082 HD
ENDBRANCH   1  30
TORSDOF 3
