REMARK  Name = CHEMBL515625
REMARK  6 active torsions:
REMARK  status: ('A' for Active; 'I' for Inactive)
REMARK    1  A    between atoms: C_1  and  C_2
REMARK    2  A    between atoms: C_6  and  N_12
REMARK    3  A    between atoms: C_16  and  O_25
REMARK    4  A    between atoms: C_17  and  O_23
REMARK    5  A    between atoms: O_23  and  C_24
REMARK    6  A    between atoms: O_25  and  C_26
REMARK                            x       y       z     vdW  Elec       q    Type
REMARK                         _______ _______ _______ _____ _____    ______ ____
ROOT
ATOM      1  N   UNL     1       0.092  -4.037   3.798  0.00  0.00    -0.299 N 
ATOM      2  C   UNL     1       0.206  -3.773   5.149  0.00  0.00    +0.134 A 
ATOM      3  C   UNL     1       0.342  -4.826   6.085  0.00  0.00    +0.044 A 
ATOM      4  C   UNL     1       0.368  -6.169   5.691  0.00  0.00    +0.062 A 
ATOM      5  C   UNL     1       0.502  -7.148   6.634  0.00  0.00    +0.162 A 
ATOM      6  C   UNL     1       0.614  -6.823   7.993  0.00  0.00    +0.164 A 
ATOM      7  C   UNL     1       0.591  -5.510   8.406  0.00  0.00    +0.078 A 
ATOM      8  C   UNL     1       0.455  -4.490   7.457  0.00  0.00    +0.080 A 
ATOM      9  N   UNL     1       0.428  -3.194   7.807  0.00  0.00    -0.235 NA
ATOM     10  C   UNL     1       0.300  -2.261   6.895  0.00  0.00    +0.223 A 
ATOM     11  N   UNL     1       0.196  -2.527   5.603  0.00  0.00    -0.220 NA
ATOM     12  H   UNL     1       0.023  -4.953   3.487  0.00  0.00    +0.154 HD
ENDROOT
BRANCH   1  18
ATOM     13  C   UNL     1       0.504   1.393  -0.126  0.00  0.00    +0.065 C 
ATOM     14  C   UNL     1      -0.106   0.024   0.036  0.00  0.00    +0.041 A 
ATOM     15  C   UNL     1       0.098  -0.837   1.098  0.00  0.00    +0.023 A 
ATOM     16  C   UNL     1       0.855  -0.783   2.289  0.00  0.00    +0.013 A 
ATOM     17  C   UNL     1       0.834  -1.833   3.145  0.00  0.00    +0.024 A 
ATOM     18  C   UNL     1       0.075  -2.983   2.880  0.00  0.00    +0.034 A 
ATOM     19  C   UNL     1      -0.677  -3.099   1.749  0.00  0.00    +0.053 A 
ATOM     20  C   UNL     1      -0.698  -2.041   0.817  0.00  0.00    +0.095 A 
ATOM     21  N   UNL     1      -1.301  -1.837  -0.341  0.00  0.00    -0.174 NA
ATOM     22  H   UNL     1      -1.260  -0.184  -1.653  0.00  0.00    +0.189 HD
ATOM     23  N   UNL     1      -0.946  -0.572  -0.821  0.00  0.00    -0.281 N 
ENDBRANCH   1  18
BRANCH   6  24
ATOM     24  O   UNL     1       0.746  -7.814   8.913  0.00  0.00    -0.491 OA
ATOM     25  C   UNL     1       0.856  -7.420  10.281  0.00  0.00    +0.277 C 
ENDBRANCH   6  24
BRANCH   5  26
ATOM     26  O   UNL     1       0.527  -8.453   6.250  0.00  0.00    -0.491 OA
ATOM     27  C   UNL     1       0.408  -8.720   4.851  0.00  0.00    +0.277 C 
ENDBRANCH   5  26
TORSDOF 3
