REMARK  Name = CHEMBL402531
REMARK  5 active torsions:
REMARK  status: ('A' for Active; 'I' for Inactive)
REMARK    1  A    between atoms: C_1  and  C_2
REMARK    2  A    between atoms: C_2  and  N_3
REMARK    3  A    between atoms: C_7  and  C_28
REMARK    4  A    between atoms: N_22  and  C_27
REMARK    5  A    between atoms: C_28  and  C_30
REMARK                            x       y       z     vdW  Elec       q    Type
REMARK                         _______ _______ _______ _____ _____    ______ ____
ROOT
ATOM      1  N   UNL     1       0.494  -1.497   1.328  0.00  0.00    -0.340 N 
ATOM      2  C   UNL     1       1.860  -1.560   1.335  0.00  0.00    +0.050 A 
ATOM      3  C   UNL     1       2.792  -1.267   0.337  0.00  0.00    +0.027 A 
ATOM      4  C   UNL     1       4.118  -1.430   0.644  0.00  0.00    +0.014 A 
ATOM      5  C   UNL     1       4.544  -1.871   1.900  0.00  0.00    +0.023 A 
ATOM      6  C   UNL     1       3.628  -2.170   2.917  0.00  0.00    +0.022 A 
ATOM      7  C   UNL     1       2.282  -2.004   2.611  0.00  0.00    +0.009 A 
ATOM      8  C   UNL     1       1.068  -2.207   3.406  0.00  0.00    +0.013 A 
ATOM      9  C   UNL     1      -0.011  -1.879   2.559  0.00  0.00    +0.054 A 
ATOM     10  C   UNL     1      -1.318  -1.961   3.035  0.00  0.00    -0.014 A 
ATOM     11  C   UNL     1      -1.544  -2.402   4.335  0.00  0.00    +0.003 A 
ATOM     12  C   UNL     1      -0.473  -2.702   5.194  0.00  0.00    +0.050 A 
ATOM     13  C   UNL     1       0.833  -2.610   4.711  0.00  0.00    -0.008 A 
ATOM     14  C   UNL     1       1.738  -2.998   5.853  0.00  0.00    +0.141 C 
ATOM     15  N   UNL     1       0.858  -3.321   6.982  0.00  0.00    -0.307 N 
ATOM     16  C   UNL     1      -0.417  -3.138   6.598  0.00  0.00    +0.245 C 
ATOM     17  O   UNL     1      -1.387  -3.321   7.307  0.00  0.00    -0.270 OA
ATOM     18  C   UNL     1      -2.950  -2.587   4.756  0.00  0.00    +0.024 A 
ATOM     19  C   UNL     1      -3.508  -2.782   5.970  0.00  0.00    +0.116 A 
ATOM     20  N   UNL     1      -4.845  -2.868   5.789  0.00  0.00    -0.274 N 
ATOM     21  N   UNL     1      -5.116  -2.728   4.418  0.00  0.00    -0.176 NA
ATOM     22  C   UNL     1      -3.996  -2.568   3.792  0.00  0.00    +0.071 A 
ATOM     23  C   UNL     1      -3.703  -2.404   2.323  0.00  0.00    +0.062 C 
ATOM     24  C   UNL     1      -2.456  -1.542   2.145  0.00  0.00    +0.044 C 
ATOM     25  C   UNL     1      -5.841  -3.072   6.843  0.00  0.00    +0.172 C 
ATOM     26  H   UNL     1       1.148  -3.604   7.863  0.00  0.00    +0.149 HD
ENDROOT
BRANCH   1  28
ATOM     27  C   UNL     1      -0.792  -2.316  -0.584  0.00  0.00    +0.027 C 
ATOM     28  C   UNL     1      -0.318  -1.080   0.183  0.00  0.00    +0.119 C 
ENDBRANCH   1  28
BRANCH   5  29
ATOM     29  C   UNL     1       5.989  -2.025   2.160  0.00  0.00    +0.200 C 
ATOM     30  O   UNL     1       6.757  -2.219   1.236  0.00  0.00    -0.286 OA
BRANCH  29  31
ATOM     31  C   UNL     1       6.499  -1.945   3.531  0.00  0.00    +0.059 A 
ATOM     32  C   UNL     1       7.782  -2.188   4.003  0.00  0.00    +0.019 A 
ATOM     33  C   UNL     1       7.959  -2.030   5.356  0.00  0.00    +0.008 A 
ATOM     34  C   UNL     1       6.902  -1.658   6.121  0.00  0.00    +0.046 A 
ATOM     35  S   UNL     1       5.636  -1.504   5.027  0.00  0.00    -0.093 S 
ENDBRANCH  29  31
ENDBRANCH   5  29
TORSDOF 3
