REMARK  Name = CHEMBL374690
REMARK  10 active torsions:
REMARK  status: ('A' for Active; 'I' for Inactive)
REMARK    1  A    between atoms: C_1  and  N_2
REMARK    2  A    between atoms: N_2  and  C_3
REMARK    3  A    between atoms: C_4  and  C_6
REMARK    4  A    between atoms: C_6  and  O_7
REMARK    5  A    between atoms: O_7  and  C_8
REMARK    6  A    between atoms: C_20  and  C_21
REMARK    7  A    between atoms: C_23  and  C_26
REMARK    8  A    between atoms: C_27  and  C_28
REMARK    9  A    between atoms: C_28  and  O_29
REMARK   10  A    between atoms: O_29  and  C_30
REMARK                            x       y       z     vdW  Elec       q    Type
REMARK                         _______ _______ _______ _____ _____    ______ ____
ROOT
ATOM      1  C   UNL     1      -2.636  -4.045   0.005  0.00  0.00    +0.122 A 
ATOM      2  C   UNL     1      -1.524  -4.875  -0.004  0.00  0.00    +0.046 A 
ATOM      3  C   UNL     1      -1.681  -6.245  -0.010  0.00  0.00    +0.014 A 
ATOM      4  C   UNL     1      -2.963  -6.801  -0.006  0.00  0.00    +0.006 A 
ATOM      5  C   UNL     1      -4.074  -5.962   0.003  0.00  0.00    -0.030 A 
ATOM      6  C   UNL     1      -3.911  -4.593   0.015  0.00  0.00    +0.050 A 
ATOM      7  C   UNL     1      -5.307  -6.832   0.004  0.00  0.00    +0.075 C 
ATOM      8  C   UNL     1      -4.815  -8.257  -0.006  0.00  0.00    +0.010 A 
ATOM      9  C   UNL     1      -3.411  -8.216  -0.012  0.00  0.00    +0.097 A 
ATOM     10  N   UNL     1      -2.967  -9.459  -0.021  0.00  0.00    -0.173 NA
ATOM     11  H   UNL     1      -4.032 -11.293  -0.026  0.00  0.00    +0.189 HD
ATOM     12  N   UNL     1      -4.068 -10.324  -0.021  0.00  0.00    -0.276 N 
ATOM     13  C   UNL     1      -5.200  -9.564  -0.011  0.00  0.00    +0.070 A 
ENDROOT
BRANCH  13  14
ATOM     14  C   UNL     1      -6.592 -10.066  -0.007  0.00  0.00    +0.008 A 
ATOM     15  C   UNL     1      -6.970 -11.101   0.837  0.00  0.00    +0.034 A 
ATOM     16  C   UNL     1      -8.268 -11.533   0.807  0.00  0.00    +0.063 A 
ATOM     17  S   UNL     1      -8.990 -10.471  -0.432  0.00  0.00    -0.088 S 
ATOM     18  C   UNL     1      -7.537  -9.515  -0.833  0.00  0.00    +0.056 A 
BRANCH  16  19
ATOM     19  C   UNL     1      -8.887 -12.572   1.573  0.00  0.00    -0.056 C 
ATOM     20  C   UNL     1      -9.396 -13.424   2.200  0.00  0.00    -0.056 C 
BRANCH  20  21
ATOM     21  C   UNL     1     -10.033 -14.493   2.988  0.00  0.00    +0.318 C 
BRANCH  21  22
ATOM     22  O   UNL     1     -11.410 -14.596   2.623  0.00  0.00    -0.480 OA
BRANCH  22  23
ATOM     23  C   UNL     1     -12.148 -15.542   3.261  0.00  0.00    +0.122 A 
ATOM     24  C   UNL     1     -11.560 -16.350   4.224  0.00  0.00    +0.046 A 
ATOM     25  C   UNL     1     -12.312 -17.310   4.872  0.00  0.00    +0.004 A 
ATOM     26  C   UNL     1     -13.650 -17.467   4.562  0.00  0.00    +0.000 A 
ATOM     27  C   UNL     1     -14.239 -16.663   3.603  0.00  0.00    +0.004 A 
ATOM     28  C   UNL     1     -13.493 -15.697   2.956  0.00  0.00    +0.046 A 
ENDBRANCH  22  23
ENDBRANCH  21  22
ENDBRANCH  20  21
ENDBRANCH  16  19
ENDBRANCH  13  14
BRANCH   1  29
ATOM     29  O   UNL     1      -2.476  -2.695   0.011  0.00  0.00    -0.483 OA
BRANCH  29  30
ATOM     30  C   UNL     1      -1.135  -2.201   0.001  0.00  0.00    +0.324 C 
BRANCH  30  34
ATOM     31  C   UNL     1      -0.018   1.461   0.010  0.00  0.00    +0.131 C 
ATOM     32  N   UNL     1       0.002  -0.004   0.002  0.00  0.00    -0.305 N 
ATOM     33  C   UNL     1       1.281  -0.719  -0.014  0.00  0.00    +0.131 C 
ATOM     34  C   UNL     1      -1.156  -0.694   0.009  0.00  0.00    +0.253 C 
ATOM     35  O   UNL     1      -2.214  -0.102   0.023  0.00  0.00    -0.272 OA
ENDBRANCH  30  34
ENDBRANCH  29  30
ENDBRANCH   1  29
TORSDOF 8
