REMARK  Name = CHEMBL325003
REMARK  3 active torsions:
REMARK  status: ('A' for Active; 'I' for Inactive)
REMARK    1  A    between atoms: C_8  and  C_12
REMARK    2  A    between atoms: C_16  and  C_22
REMARK    3  A    between atoms: N_24  and  C_25
REMARK                            x       y       z     vdW  Elec       q    Type
REMARK                         _______ _______ _______ _____ _____    ______ ____
ROOT
ATOM      1  C   UNL     1       2.539  -4.224  -0.044  0.00  0.00    +0.053 A 
ATOM      2  C   UNL     1       3.046  -4.991   0.954  0.00  0.00    +0.036 A 
ATOM      3  C   UNL     1       2.908  -6.384   0.530  0.00  0.00    +0.001 A 
ATOM      4  C   UNL     1       3.240  -7.607   1.113  0.00  0.00    +0.023 A 
ATOM      5  C   UNL     1       2.969  -8.787   0.427  0.00  0.00    +0.037 A 
ATOM      6  C   UNL     1       2.368  -8.740  -0.839  0.00  0.00    +0.015 A 
ATOM      7  C   UNL     1       2.043  -7.546  -1.412  0.00  0.00    +0.027 A 
ATOM      8  C   UNL     1       2.304  -6.352  -0.744  0.00  0.00    +0.047 A 
ATOM      9  N   UNL     1       2.087  -5.032  -1.063  0.00  0.00    -0.354 N 
ATOM     10  H   UNL     1       1.679  -4.718  -1.885  0.00  0.00    +0.166 HD
ENDROOT
BRANCH   1  18
ATOM     11  C   UNL     1      -0.016   1.361   0.009  0.00  0.00    +0.001 A 
ATOM     12  C   UNL     1       1.169   2.083   0.002  0.00  0.00    +0.002 A 
ATOM     13  C   UNL     1       2.385   1.435  -0.013  0.00  0.00    +0.026 A 
ATOM     14  C   UNL     1       2.431   0.043  -0.021  0.00  0.00    +0.049 A 
ATOM     15  C   UNL     1       1.228  -0.686  -0.013  0.00  0.00    -0.001 A 
ATOM     16  C   UNL     1       0.002  -0.004   0.002  0.00  0.00    +0.010 A 
ATOM     17  C   UNL     1       1.257  -2.104  -0.021  0.00  0.00    +0.025 A 
ATOM     18  C   UNL     1       2.476  -2.749  -0.037  0.00  0.00    +0.063 A 
ATOM     19  C   UNL     1       3.709  -1.954  -0.045  0.00  0.00    +0.258 A 
ATOM     20  N   UNL     1       3.647  -0.609  -0.036  0.00  0.00    -0.322 N 
ATOM     21  O   UNL     1       4.792  -2.512  -0.058  0.00  0.00    -0.267 OA
ATOM     22  H   UNL     1       4.467  -0.092  -0.042  0.00  0.00    +0.169 HD
ENDBRANCH   1  18
BRANCH   5  23
ATOM     23  C   UNL     1       3.315 -10.088   1.032  0.00  0.00    +0.244 C 
ATOM     24  O   UNL     1       3.836 -10.129   2.130  0.00  0.00    -0.270 OA
ATOM     25  N   UNL     1       3.053 -11.231   0.368  0.00  0.00    -0.310 N 
ATOM     26  H   UNL     1       2.637 -11.199  -0.508  0.00  0.00    +0.149 HD
BRANCH  25  27
ATOM     27  C   UNL     1       3.396 -12.523   0.969  0.00  0.00    +0.054 C 
ATOM     28  C   UNL     1       4.838 -12.927   0.583  0.00  0.00    +0.001 C 
ATOM     29  C   UNL     1       4.717 -14.453   0.344  0.00  0.00    -0.081 C 
ATOM     30  N   UNL     1       3.387 -14.592  -0.302  0.00  0.00    +0.380 N 
ATOM     31  C   UNL     1       2.499 -13.635   0.394  0.00  0.00    -0.060 C 
ATOM     32  H   UNL     1       3.450 -14.359  -1.281  0.00  0.00    -0.086 HD
ATOM     33  H   UNL     1       3.041 -15.533  -0.187  0.00  0.00    -0.086 HD
ENDBRANCH  25  27
ENDBRANCH   5  23
TORSDOF 3
