REMARK  Name = CHEMBL200885
REMARK  11 active torsions:
REMARK  status: ('A' for Active; 'I' for Inactive)
REMARK    1  A    between atoms: C_1  and  O_2
REMARK    2  A    between atoms: O_2  and  C_3
REMARK    3  A    between atoms: C_3  and  C_4
REMARK    4  A    between atoms: C_4  and  O_5
REMARK    5  A    between atoms: O_5  and  C_6
REMARK    6  A    between atoms: C_11  and  O_12
REMARK    7  A    between atoms: O_12  and  C_13
REMARK    8  A    between atoms: C_14  and  N_18
REMARK    9  A    between atoms: C_22  and  O_26
REMARK   10  A    between atoms: O_26  and  C_27
REMARK   11  A    between atoms: C_30  and  N_33
REMARK                            x       y       z     vdW  Elec       q    Type
REMARK                         _______ _______ _______ _____ _____    ______ ____
ROOT
ATOM      1  N   UNL     1       0.828  -8.532   2.901  0.00  0.00    -0.228 NA
ATOM      2  C   UNL     1       0.937  -9.813   3.112  0.00  0.00    +0.098 C 
ATOM      3  C   UNL     1       1.349 -10.376   4.463  0.00  0.00    +0.142 C 
ATOM      4  C   UNL     1       0.345 -11.452   4.817  0.00  0.00    +0.204 C 
ATOM      5  C   UNL     1      -0.136 -12.368   3.765  0.00  0.00    +0.175 C 
ATOM      6  C   UNL     1       0.003 -12.066   2.449  0.00  0.00    +0.102 C 
ATOM      7  C   UNL     1       0.661 -10.817   2.048  0.00  0.00    +0.204 C 
ATOM      8  O   UNL     1       0.970 -10.613   0.889  0.00  0.00    -0.286 OA
ATOM      9  O   UNL     1      -0.058 -11.561   5.951  0.00  0.00    -0.288 OA
ENDROOT
BRANCH   1  16
ATOM     10  C   UNL     1      -3.758  -7.669   0.956  0.00  0.00    +0.164 A 
ATOM     11  C   UNL     1      -2.861  -7.336  -0.019  0.00  0.00    +0.078 A 
ATOM     12  C   UNL     1      -1.487  -7.471   0.228  0.00  0.00    +0.080 A 
ATOM     13  C   UNL     1      -1.050  -7.952   1.491  0.00  0.00    +0.048 A 
ATOM     14  C   UNL     1      -1.990  -8.285   2.471  0.00  0.00    +0.063 A 
ATOM     15  C   UNL     1      -3.323  -8.138   2.205  0.00  0.00    +0.162 A 
ATOM     16  C   UNL     1       0.345  -8.078   1.712  0.00  0.00    +0.164 A 
ATOM     17  N   UNL     1       1.169  -7.737   0.723  0.00  0.00    -0.216 NA
ATOM     18  C   UNL     1       0.712  -7.295  -0.434  0.00  0.00    +0.224 A 
ATOM     19  N   UNL     1      -0.569  -7.159  -0.693  0.00  0.00    -0.235 NA
BRANCH  15  20
ATOM     20  O   UNL     1      -4.237  -8.456   3.159  0.00  0.00    -0.491 OA
ATOM     21  C   UNL     1      -3.732  -8.929   4.410  0.00  0.00    +0.277 C 
ENDBRANCH  15  20
BRANCH  10  22
ATOM     22  O   UNL     1      -5.089  -7.537   0.716  0.00  0.00    -0.486 OA
BRANCH  22  23
ATOM     23  C   UNL     1      -5.470  -7.055  -0.574  0.00  0.00    +0.257 C 
BRANCH  23  24
ATOM     24  C   UNL     1      -6.996  -6.974  -0.657  0.00  0.00    +0.200 C 
BRANCH  24  26
ATOM     25  C   UNL     1      -8.893  -5.842   0.271  0.00  0.00    +0.194 C 
ATOM     26  O   UNL     1      -7.473  -5.997   0.269  0.00  0.00    -0.380 OA
ENDBRANCH  24  26
ENDBRANCH  23  24
ENDBRANCH  22  23
ENDBRANCH  10  22
ENDBRANCH   1  16
BRANCH   5  27
ATOM     27  O   UNL     1      -0.727 -13.532   4.118  0.00  0.00    -0.452 OA
BRANCH  27  28
ATOM     28  C   UNL     1       0.035 -14.473   4.733  0.00  0.00    +0.129 A 
ATOM     29  C   UNL     1      -0.551 -15.637   5.211  0.00  0.00    +0.048 A 
ATOM     30  C   UNL     1       0.223 -16.594   5.836  0.00  0.00    +0.030 A 
ATOM     31  C   UNL     1       1.589 -16.392   5.986  0.00  0.00    +0.048 A 
ATOM     32  C   UNL     1       2.175 -15.228   5.508  0.00  0.00    +0.030 A 
ATOM     33  C   UNL     1       1.401 -14.274   4.879  0.00  0.00    +0.048 A 
BRANCH  31  34
ATOM     34  N   UNL     1       2.376 -17.364   6.622  0.00  0.00    -0.306 N 
ATOM     35  C   UNL     1       3.727 -17.300   6.846  0.00  0.00    +0.112 A 
ATOM     36  C   UNL     1       4.071 -18.437   7.480  0.00  0.00    +0.130 A 
ATOM     37  N   UNL     1       2.965 -19.178   7.642  0.00  0.00    -0.244 NA
ATOM     38  C   UNL     1       1.942 -18.544   7.137  0.00  0.00    +0.204 A 
ENDBRANCH  31  34
ENDBRANCH  27  28
ENDBRANCH   5  27
TORSDOF 9
