REMARK  Name = CHEMBL272823
REMARK  8 active torsions:
REMARK  status: ('A' for Active; 'I' for Inactive)
REMARK    1  A    between atoms: C_1  and  O_2
REMARK    2  A    between atoms: O_2  and  C_3
REMARK    3  A    between atoms: C_8  and  O_9
REMARK    4  A    between atoms: O_9  and  C_10
REMARK    5  A    between atoms: C_14  and  O_15
REMARK    6  A    between atoms: O_15  and  C_16
REMARK    7  A    between atoms: C_25  and  C_26
REMARK    8  A    between atoms: N_28  and  C_29
REMARK                            x       y       z     vdW  Elec       q    Type
REMARK                         _______ _______ _______ _____ _____    ______ ____
ROOT
ATOM      1  C   UNL     1      -5.979   2.228  -0.032  0.00  0.00    +0.131 A 
ATOM      2  C   UNL     1      -7.204   1.556   0.006  0.00  0.00    +0.047 A 
ATOM      3  C   UNL     1      -8.379   2.243   0.001  0.00  0.00    +0.013 A 
ATOM      4  C   UNL     1      -8.366   3.644  -0.042  0.00  0.00    -0.006 A 
ATOM      5  C   UNL     1      -7.128   4.330  -0.080  0.00  0.00    -0.014 A 
ATOM      6  C   UNL     1      -5.931   3.593  -0.069  0.00  0.00    +0.054 A 
ATOM      7  C   UNL     1      -7.115   5.735  -0.123  0.00  0.00    +0.008 A 
ATOM      8  C   UNL     1      -8.287   6.430  -0.127  0.00  0.00    +0.001 A 
ATOM      9  C   UNL     1      -9.511   5.775  -0.090  0.00  0.00    +0.014 A 
ATOM     10  C   UNL     1      -9.572   4.390  -0.049  0.00  0.00    +0.045 A 
ENDROOT
BRANCH  10  11
ATOM     11  C   UNL     1     -10.874   3.701  -0.011  0.00  0.00    +0.249 C 
ATOM     12  O   UNL     1     -10.920   2.494   0.131  0.00  0.00    -0.270 OA
ATOM     13  N   UNL     1     -12.015   4.409  -0.133  0.00  0.00    -0.281 N 
ATOM     14  H   UNL     1     -11.982   5.377  -0.182  0.00  0.00    +0.155 HD
BRANCH  13  15
ATOM     15  C   UNL     1     -13.246   3.747  -0.189  0.00  0.00    +0.034 A 
ATOM     16  C   UNL     1     -14.266   4.243  -0.991  0.00  0.00    +0.025 A 
ATOM     17  C   UNL     1     -15.481   3.587  -1.045  0.00  0.00    +0.022 A 
ATOM     18  C   UNL     1     -15.682   2.438  -0.300  0.00  0.00    +0.041 A 
ATOM     19  C   UNL     1     -14.667   1.943   0.500  0.00  0.00    +0.022 A 
ATOM     20  C   UNL     1     -13.449   2.591   0.553  0.00  0.00    +0.025 A 
ATOM     21 CL   UNL     1     -17.210   1.618  -0.369  0.00  0.00    -0.084 Cl
ENDBRANCH  13  15
ENDBRANCH  10  11
BRANCH   1  22
ATOM     22  O   UNL     1      -4.822   1.516  -0.025  0.00  0.00    -0.437 OA
BRANCH  22  32
ATOM     23  C   UNL     1      -1.127  -0.484  -0.330  0.00  0.00    +0.162 A 
ATOM     24  C   UNL     1      -2.314   0.175  -0.188  0.00  0.00    +0.064 A 
ATOM     25  C   UNL     1      -3.213   0.223  -1.262  0.00  0.00    +0.066 A 
ATOM     26  C   UNL     1      -2.886  -0.412  -2.486  0.00  0.00    +0.082 A 
ATOM     27  C   UNL     1      -1.662  -1.083  -2.608  0.00  0.00    +0.078 A 
ATOM     28  C   UNL     1      -0.794  -1.110  -1.540  0.00  0.00    +0.164 A 
ATOM     29  N   UNL     1      -3.764  -0.351  -3.498  0.00  0.00    -0.235 NA
ATOM     30  C   UNL     1      -4.901   0.285  -3.353  0.00  0.00    +0.225 A 
ATOM     31  N   UNL     1      -5.248   0.892  -2.229  0.00  0.00    -0.201 NA
ATOM     32  C   UNL     1      -4.454   0.892  -1.168  0.00  0.00    +0.231 A 
BRANCH  23  34
ATOM     33  C   UNL     1      -0.651   0.126   1.919  0.00  0.00    +0.277 C 
ATOM     34  O   UNL     1      -0.255  -0.530   0.713  0.00  0.00    -0.491 OA
ENDBRANCH  23  34
BRANCH  28  35
ATOM     35  O   UNL     1       0.396  -1.755  -1.657  0.00  0.00    -0.491 OA
ATOM     36  C   UNL     1       0.677  -2.373  -2.914  0.00  0.00    +0.277 C 
ENDBRANCH  28  35
ENDBRANCH  22  32
ENDBRANCH   1  22
TORSDOF 6
