REMARK  Name = CHEMBL219555
REMARK  6 active torsions:
REMARK  status: ('A' for Active; 'I' for Inactive)
REMARK    1  A    between atoms: C_1  and  C_2
REMARK    2  A    between atoms: C_2  and  C_3
REMARK    3  A    between atoms: C_3  and  N_4
REMARK    4  A    between atoms: C_8  and  N_29
REMARK    5  A    between atoms: N_23  and  C_28
REMARK    6  A    between atoms: N_32  and  C_33
REMARK                            x       y       z     vdW  Elec       q    Type
REMARK                         _______ _______ _______ _____ _____    ______ ____
ROOT
ATOM      1  N   UNL     1      -1.471  -2.006   0.016  0.00  0.00    -0.340 N 
ATOM      2  C   UNL     1      -1.508  -2.787  -1.113  0.00  0.00    +0.050 A 
ATOM      3  C   UNL     1      -1.404  -2.447  -2.461  0.00  0.00    +0.028 A 
ATOM      4  C   UNL     1      -1.478  -3.478  -3.382  0.00  0.00    +0.025 A 
ATOM      5  C   UNL     1      -1.651  -4.801  -2.997  0.00  0.00    +0.035 A 
ATOM      6  C   UNL     1      -1.759  -5.162  -1.657  0.00  0.00    +0.034 A 
ATOM      7  C   UNL     1      -1.685  -4.132  -0.722  0.00  0.00    +0.010 A 
ATOM      8  C   UNL     1      -1.755  -4.137   0.742  0.00  0.00    +0.013 A 
ATOM      9  C   UNL     1      -1.614  -2.793   1.145  0.00  0.00    +0.054 A 
ATOM     10  C   UNL     1      -1.620  -2.469   2.500  0.00  0.00    -0.014 A 
ATOM     11  C   UNL     1      -1.806  -3.477   3.441  0.00  0.00    +0.003 A 
ATOM     12  C   UNL     1      -1.927  -4.821   3.049  0.00  0.00    +0.050 A 
ATOM     13  C   UNL     1      -1.909  -5.137   1.690  0.00  0.00    -0.008 A 
ATOM     14  C   UNL     1      -2.066  -6.634   1.597  0.00  0.00    +0.141 C 
ATOM     15  N   UNL     1      -2.184  -7.119   2.977  0.00  0.00    -0.307 N 
ATOM     16  C   UNL     1      -2.093  -6.068   3.811  0.00  0.00    +0.245 C 
ATOM     17  O   UNL     1      -2.151  -6.138   5.023  0.00  0.00    -0.270 OA
ATOM     18  C   UNL     1      -1.918  -3.071   4.860  0.00  0.00    +0.024 A 
ATOM     19  C   UNL     1      -1.877  -3.783   6.005  0.00  0.00    +0.116 A 
ATOM     20  N   UNL     1      -2.010  -2.908   7.028  0.00  0.00    -0.274 N 
ATOM     21  N   UNL     1      -2.144  -1.617   6.491  0.00  0.00    -0.176 NA
ATOM     22  C   UNL     1      -2.099  -1.702   5.202  0.00  0.00    +0.071 A 
ATOM     23  C   UNL     1      -2.222  -0.641   4.139  0.00  0.00    +0.062 C 
ATOM     24  C   UNL     1      -1.395  -1.043   2.920  0.00  0.00    +0.044 C 
ATOM     25  C   UNL     1      -2.015  -3.248   8.453  0.00  0.00    +0.172 C 
ATOM     26  H   UNL     1      -2.296  -8.044   3.244  0.00  0.00    +0.149 HD
ENDROOT
BRANCH   5  27
ATOM     27  N   UNL     1      -1.718  -5.797  -3.981  0.00  0.00    -0.269 N 
ATOM     28  C   UNL     1      -1.181  -7.011  -3.749  0.00  0.00    +0.308 C 
ATOM     29  O   UNL     1      -0.713  -7.271  -2.657  0.00  0.00    -0.252 OA
ATOM     30  N   UNL     1      -1.161  -7.937  -4.728  0.00  0.00    -0.264 N 
ATOM     31  H   UNL     1      -2.151  -5.612  -4.829  0.00  0.00    +0.156 HD
ATOM     32  H   UNL     1      -1.534  -7.730  -5.599  0.00  0.00    +0.157 HD
BRANCH  30  33
ATOM     33  C   UNL     1      -0.604  -9.196  -4.488  0.00  0.00    +0.073 A 
ATOM     34  C   UNL     1      -0.483 -10.257  -5.334  0.00  0.00    +0.031 A 
ATOM     35  C   UNL     1       0.112 -11.416  -4.869  0.00  0.00    +0.009 A 
ATOM     36  C   UNL     1       0.554 -11.461  -3.590  0.00  0.00    +0.047 A 
ATOM     37  S   UNL     1       0.141  -9.830  -2.994  0.00  0.00    -0.082 S 
ENDBRANCH  30  33
ENDBRANCH   5  27
BRANCH   1  38
ATOM     38  C   UNL     1      -1.299  -0.551   0.024  0.00  0.00    +0.122 C 
BRANCH  38  40
ATOM     39  C   UNL     1      -2.488   1.644   0.124  0.00  0.00    +0.005 C 
ATOM     40  C   UNL     1      -2.668   0.124   0.116  0.00  0.00    +0.018 C 
ENDBRANCH  38  40
ENDBRANCH   1  38
TORSDOF 4
