REMARK  Name = CHEMBL400569
REMARK  8 active torsions:
REMARK  status: ('A' for Active; 'I' for Inactive)
REMARK    1  A    between atoms: C_1  and  C_2
REMARK    2  A    between atoms: C_2  and  N_3
REMARK    3  A    between atoms: N_3  and  C_4
REMARK    4  A    between atoms: C_4  and  C_5
REMARK    5  A    between atoms: C_7  and  C_11
REMARK    6  A    between atoms: C_14  and  C_21
REMARK    7  A    between atoms: C_26  and  N_30
REMARK    8  A    between atoms: N_33  and  C_36
REMARK                            x       y       z     vdW  Elec       q    Type
REMARK                         _______ _______ _______ _____ _____    ______ ____
ROOT
ATOM      1  C   UNL     1       0.687  -3.376  -6.018  0.00  0.00    +0.002 A 
ATOM      2  C   UNL     1       1.384  -3.827  -7.136  0.00  0.00    +0.024 A 
ATOM      3  C   UNL     1       0.665  -4.044  -8.312  0.00  0.00    +0.050 A 
ATOM      4  C   UNL     1       1.026  -4.502  -9.659  0.00  0.00    +0.137 A 
ATOM      5  N   UNL     1      -0.074  -4.516 -10.376  0.00  0.00    -0.168 NA
ATOM      6  N   UNL     1      -1.156  -4.097  -9.597  0.00  0.00    -0.260 N 
ATOM      7  H   UNL     1      -2.073  -4.025  -9.906  0.00  0.00    +0.191 HD
ATOM      8  C   UNL     1      -0.722  -3.804  -8.331  0.00  0.00    +0.156 A 
ATOM      9  N   UNL     1      -1.340  -3.375  -7.237  0.00  0.00    -0.235 NA
ATOM     10  C   UNL     1      -0.692  -3.165  -6.113  0.00  0.00    +0.121 A 
ENDROOT
BRANCH   4  11
ATOM     11  C   UNL     1       2.377  -4.876 -10.122  0.00  0.00    +0.160 A 
ATOM     12  N   UNL     1       3.460  -4.858  -9.383  0.00  0.00    -0.226 NA
ATOM     13  C   UNL     1       4.523  -5.260 -10.123  0.00  0.00    +0.090 A 
ATOM     14  C   UNL     1       5.883  -5.421  -9.838  0.00  0.00    +0.032 A 
ATOM     15  C   UNL     1       6.738  -5.853 -10.811  0.00  0.00    +0.025 A 
ATOM     16  C   UNL     1       6.269  -6.137 -12.092  0.00  0.00    +0.032 A 
ATOM     17  C   UNL     1       4.926  -5.983 -12.395  0.00  0.00    +0.051 A 
ATOM     18  C   UNL     1       4.047  -5.545 -11.415  0.00  0.00    +0.068 A 
ATOM     19  N   UNL     1       2.687  -5.301 -11.388  0.00  0.00    -0.337 N 
ATOM     20  H   UNL     1       2.068  -5.408 -12.128  0.00  0.00    +0.167 HD
BRANCH  16  21
ATOM     21  N   UNL     1       7.158  -6.578 -13.077  0.00  0.00    -0.333 N 
ATOM     22  C   UNL     1       8.605  -6.637 -12.818  0.00  0.00    +0.086 C 
ATOM     23  C   UNL     1       9.114  -8.026 -13.218  0.00  0.00    -0.060 C 
ATOM     24  N   UNL     1       8.735  -8.303 -14.609  0.00  0.00    +0.380 N 
ATOM     25  C   UNL     1       7.273  -8.369 -14.726  0.00  0.00    -0.060 C 
ATOM     26  C   UNL     1       6.672  -7.003 -14.399  0.00  0.00    +0.086 C 
ATOM     27  C   UNL     1       9.317  -9.586 -15.027  0.00  0.00    -0.096 C 
ATOM     28  H   UNL     1       9.086  -7.568 -15.205  0.00  0.00    -0.082 HD
ENDBRANCH  16  21
ENDBRANCH   4  11
BRANCH   1  31
ATOM     29  C   UNL     1       1.409  -2.466  -2.445  0.00  0.00    -0.046 A 
ATOM     30  C   UNL     1       0.700  -2.682  -3.614  0.00  0.00    +0.013 A 
ATOM     31  C   UNL     1       1.398  -3.128  -4.739  0.00  0.00    +0.002 A 
ATOM     32  C   UNL     1       2.772  -3.338  -4.641  0.00  0.00    +0.119 A 
ATOM     33  N   UNL     1       3.404  -3.119  -3.506  0.00  0.00    -0.262 NA
ATOM     34  C   UNL     1       2.773  -2.692  -2.429  0.00  0.00    +0.112 A 
BRANCH  29  35
ATOM     35  C   UNL     1       0.704  -1.983  -1.204  0.00  0.00    -0.045 C 
BRANCH  35  36
ATOM     36  N   UNL     1       0.696  -0.514  -1.184  0.00  0.00    +0.382 N 
ATOM     37  H   UNL     1       0.214  -0.170  -2.001  0.00  0.00    -0.085 HD
ATOM     38  H   UNL     1       1.646  -0.173  -1.185  0.00  0.00    -0.085 HD
BRANCH  36  40
ATOM     39  C   UNL     1       0.000   1.486   0.045  0.00  0.00    -0.017 C 
ATOM     40  C   UNL     1       0.008  -0.044   0.025  0.00  0.00    -0.086 C 
ENDBRANCH  36  40
ENDBRANCH  35  36
ENDBRANCH  29  35
ENDBRANCH   1  31
TORSDOF 6
