REMARK  Name = CHEMBL394619
REMARK  5 active torsions:
REMARK  status: ('A' for Active; 'I' for Inactive)
REMARK    1  A    between atoms: C_1  and  C_2
REMARK    2  A    between atoms: C_6  and  N_8
REMARK    3  A    between atoms: N_11  and  C_12
REMARK    4  A    between atoms: C_15  and  C_18
REMARK    5  A    between atoms: C_23  and  N_27
REMARK                            x       y       z     vdW  Elec       q    Type
REMARK                         _______ _______ _______ _____ _____    ______ ____
ROOT
ATOM      1  C   UNL     1      -0.490  -6.266   2.431  0.00  0.00    +0.035 A 
ATOM      2  C   UNL     1       0.045  -7.004   1.383  0.00  0.00    +0.024 A 
ATOM      3  C   UNL     1       0.100  -8.379   1.463  0.00  0.00    +0.010 A 
ATOM      4  C   UNL     1      -0.383  -9.030   2.599  0.00  0.00    -0.017 A 
ATOM      5  C   UNL     1      -0.919  -8.286   3.650  0.00  0.00    +0.010 A 
ATOM      6  C   UNL     1      -0.966  -6.911   3.566  0.00  0.00    +0.024 A 
ENDROOT
BRANCH   4   7
ATOM      7  C   UNL     1      -0.326 -10.508   2.688  0.00  0.00    +0.000 A 
ATOM      8  C   UNL     1      -1.453 -11.230   2.891  0.00  0.00    +0.055 A 
ATOM      9  S   UNL     1      -0.869 -12.914   2.921  0.00  0.00    -0.096 S 
ATOM     10  C   UNL     1       0.858 -12.616   2.663  0.00  0.00    +0.025 A 
ATOM     11  C   UNL     1       0.946 -11.212   2.553  0.00  0.00    +0.036 A 
ATOM     12  C   UNL     1       2.247 -10.692   2.333  0.00  0.00    +0.125 A 
ATOM     13  N   UNL     1       3.287 -11.495   2.238  0.00  0.00    -0.240 NA
ATOM     14  C   UNL     1       3.196 -12.812   2.337  0.00  0.00    +0.114 A 
ATOM     15  C   UNL     1       1.985 -13.410   2.559  0.00  0.00    +0.035 A 
BRANCH  12  16
ATOM     16  N   UNL     1       2.427  -9.320   2.217  0.00  0.00    -0.343 N 
ATOM     17  H   UNL     1       1.812  -8.711   2.656  0.00  0.00    +0.144 HD
ATOM     18  H   UNL     1       3.167  -8.970   1.698  0.00  0.00    +0.144 HD
ENDBRANCH  12  16
ENDBRANCH   4   7
BRANCH   1  22
ATOM     19  N   UNL     1      -0.697  -2.931   1.056  0.00  0.00    -0.269 N 
ATOM     20  C   UNL     1      -0.744  -4.274   1.154  0.00  0.00    +0.308 C 
ATOM     21  O   UNL     1      -0.968  -4.949   0.168  0.00  0.00    -0.252 OA
ATOM     22  N   UNL     1      -0.543  -4.870   2.346  0.00  0.00    -0.269 N 
ATOM     23  H   UNL     1      -0.449  -2.396   1.826  0.00  0.00    +0.156 HD
ATOM     24  H   UNL     1      -0.436  -4.331   3.146  0.00  0.00    +0.156 HD
BRANCH  19  30
ATOM     25  C   UNL     1       0.042   0.750  -2.119  0.00  0.00    +0.044 C 
ATOM     26  C   UNL     1      -0.663  -0.521  -1.722  0.00  0.00    -0.049 A 
ATOM     27  C   UNL     1      -1.617  -1.073  -2.558  0.00  0.00    +0.003 A 
ATOM     28  C   UNL     1      -2.265  -2.240  -2.197  0.00  0.00    +0.002 A 
ATOM     29  C   UNL     1      -1.962  -2.858  -1.000  0.00  0.00    +0.023 A 
ATOM     30  C   UNL     1      -1.006  -2.307  -0.158  0.00  0.00    +0.035 A 
ATOM     31  C   UNL     1      -0.352  -1.138  -0.526  0.00  0.00    +0.026 A 
ENDBRANCH  19  30
ENDBRANCH   1  22
TORSDOF 4
