REMARK  Name = CHEMBL495735
REMARK  7 active torsions:
REMARK  status: ('A' for Active; 'I' for Inactive)
REMARK    1  A    between atoms: C_1  and  N_2
REMARK    2  A    between atoms: N_5  and  C_8
REMARK    3  A    between atoms: C_15  and  C_18
REMARK    4  A    between atoms: C_19  and  N_38
REMARK    5  A    between atoms: C_22  and  N_30
REMARK    6  A    between atoms: N_30  and  C_31
REMARK    7  A    between atoms: C_31  and  C_32
REMARK                            x       y       z     vdW  Elec       q    Type
REMARK                         _______ _______ _______ _____ _____    ______ ____
ROOT
ATOM      1  C   UNL     1      -0.606  -7.763   6.079  0.00  0.00    +0.103 A 
ATOM      2  C   UNL     1       0.611  -7.729   6.763  0.00  0.00    +0.050 A 
ATOM      3  C   UNL     1       0.826  -8.700   7.844  0.00  0.00    +0.022 A 
ATOM      4  C   UNL     1       2.021  -8.717   8.567  0.00  0.00    +0.034 A 
ATOM      5  C   UNL     1       2.194  -9.643   9.579  0.00  0.00    +0.028 A 
ATOM      6  C   UNL     1       1.182 -10.553   9.877  0.00  0.00    +0.025 A 
ATOM      7  C   UNL     1       0.000 -10.544   9.169  0.00  0.00    +0.028 A 
ATOM      8  C   UNL     1      -0.193  -9.620   8.147  0.00  0.00    +0.051 A 
ATOM      9  N   UNL     1      -1.376  -9.601   7.431  0.00  0.00    -0.321 N 
ATOM     10  H   UNL     1      -2.071 -10.241   7.650  0.00  0.00    +0.169 HD
ATOM     11  C   UNL     1      -1.587  -8.715   6.444  0.00  0.00    +0.262 A 
ATOM     12  O   UNL     1      -2.648  -8.735   5.845  0.00  0.00    -0.267 OA
ENDROOT
BRANCH   1  20
ATOM     13  C   UNL     1      -0.944  -3.662   1.728  0.00  0.00    +0.032 A 
ATOM     14  C   UNL     1      -2.259  -4.108   1.610  0.00  0.00    +0.025 A 
ATOM     15  C   UNL     1      -2.732  -5.109   2.431  0.00  0.00    +0.029 A 
ATOM     16  C   UNL     1      -1.896  -5.679   3.380  0.00  0.00    +0.067 A 
ATOM     17  C   UNL     1      -0.568  -5.236   3.506  0.00  0.00    +0.091 A 
ATOM     18  C   UNL     1      -0.097  -4.223   2.665  0.00  0.00    +0.053 A 
ATOM     19  N   UNL     1       0.006  -5.960   4.499  0.00  0.00    -0.227 NA
ATOM     20  C   UNL     1      -0.869  -6.810   4.988  0.00  0.00    +0.146 A 
ATOM     21  N   UNL     1      -2.062  -6.676   4.329  0.00  0.00    -0.338 N 
ATOM     22  H   UNL     1      -2.872  -7.183   4.495  0.00  0.00    +0.167 HD
BRANCH  13  27
ATOM     23  C   UNL     1       0.014   1.389  -0.110  0.00  0.00    -0.096 C 
ATOM     24  N   UNL     1       0.039  -0.079  -0.094  0.00  0.00    +0.380 N 
ATOM     25  C   UNL     1      -1.337  -0.591  -0.102  0.00  0.00    -0.060 C 
ATOM     26  C   UNL     1      -1.313  -2.119  -0.202  0.00  0.00    +0.086 C 
ATOM     27  N   UNL     1      -0.476  -2.644   0.888  0.00  0.00    -0.333 N 
ATOM     28  C   UNL     1       0.865  -2.069   1.072  0.00  0.00    +0.086 C 
ATOM     29  C   UNL     1       0.738  -0.543   1.111  0.00  0.00    -0.060 C 
ATOM     30  H   UNL     1       0.524  -0.415  -0.913  0.00  0.00    -0.082 HD
ENDBRANCH  13  27
ENDBRANCH   1  20
BRANCH   2  31
ATOM     31  N   UNL     1       1.580  -6.812   6.434  0.00  0.00    -0.357 N 
ATOM     32  H   UNL     1       1.395  -6.125   5.775  0.00  0.00    +0.142 HD
ATOM     33  H   UNL     1       2.450  -6.852   6.861  0.00  0.00    +0.142 HD
ENDBRANCH   2  31
BRANCH   5  34
ATOM     34  N   UNL     1       3.389  -9.666  10.307  0.00  0.00    -0.340 N 
ATOM     35  H   UNL     1       4.094  -9.033  10.101  0.00  0.00    +0.146 HD
BRANCH  34  36
ATOM     36  C   UNL     1       3.574 -10.646  11.380  0.00  0.00    +0.136 C 
BRANCH  36  37
ATOM     37  C   UNL     1       4.934 -10.460  12.001  0.00  0.00    -0.030 A 
ATOM     38  C   UNL     1       6.024 -11.144  11.495  0.00  0.00    +0.005 A 
ATOM     39  C   UNL     1       7.272 -10.974  12.064  0.00  0.00    +0.000 A 
ATOM     40  C   UNL     1       7.431 -10.119  13.139  0.00  0.00    +0.000 A 
ATOM     41  C   UNL     1       6.342  -9.434  13.644  0.00  0.00    +0.000 A 
ATOM     42  C   UNL     1       5.094  -9.601  13.072  0.00  0.00    +0.005 A 
ENDBRANCH  36  37
ENDBRANCH  34  36
ENDBRANCH   5  34
TORSDOF 6
