REMARK  Name = CHEMBL209555
REMARK  5 active torsions:
REMARK  status: ('A' for Active; 'I' for Inactive)
REMARK    1  A    between atoms: C_11  and  C_13
REMARK    2  A    between atoms: C_13  and  C_14
REMARK    3  A    between atoms: C_14  and  C_15
REMARK    4  A    between atoms: C_17  and  C_22
REMARK    5  A    between atoms: N_24  and  C_25
REMARK                            x       y       z     vdW  Elec       q    Type
REMARK                         _______ _______ _______ _____ _____    ______ ____
ROOT
ATOM      1  C   UNL     1      -3.218  -6.157  -0.945  0.00  0.00    +0.043 C 
ENDROOT
BRANCH   1   2
ATOM      2  C   UNL     1      -4.152  -7.332  -0.811  0.00  0.00    -0.011 A 
ATOM      3  C   UNL     1      -5.510  -7.153  -0.972  0.00  0.00    +0.019 A 
ATOM      4  C   UNL     1      -6.374  -8.243  -0.848  0.00  0.00    +0.037 A 
ATOM      5  C   UNL     1      -5.858  -9.509  -0.561  0.00  0.00    +0.016 A 
ATOM      6  C   UNL     1      -4.499  -9.676  -0.402  0.00  0.00    +0.039 A 
ATOM      7  C   UNL     1      -3.645  -8.591  -0.531  0.00  0.00    +0.127 A 
ATOM      8  F   UNL     1      -2.313  -8.762  -0.380  0.00  0.00    -0.205 F 
BRANCH   4   9
ATOM      9  C   UNL     1      -7.830  -8.058  -1.019  0.00  0.00    +0.244 C 
ATOM     10  O   UNL     1      -8.277  -6.955  -1.268  0.00  0.00    -0.270 OA
ATOM     11  N   UNL     1      -8.662  -9.111  -0.899  0.00  0.00    -0.308 N 
ATOM     12  H   UNL     1      -8.305  -9.991  -0.700  0.00  0.00    +0.149 HD
BRANCH  11  13
ATOM     13  C   UNL     1     -10.106  -8.927  -1.069  0.00  0.00    +0.073 C 
ATOM     14  C   UNL     1     -11.029  -9.624  -0.067  0.00  0.00    +0.024 C 
ATOM     15  C   UNL     1     -10.926 -10.143  -1.503  0.00  0.00    +0.024 C 
ENDBRANCH  11  13
ENDBRANCH   4   9
ENDBRANCH   1   2
BRANCH   1  16
ATOM     16  C   UNL     1      -2.832  -5.652   0.447  0.00  0.00    +0.049 C 
BRANCH  16  27
ATOM     17  C   UNL     1       2.369   1.437  -0.015  0.00  0.00    +0.005 A 
ATOM     18  C   UNL     1       1.126   2.057  -0.005  0.00  0.00    +0.020 A 
ATOM     19  C   UNL     1      -0.016   1.281  -0.002  0.00  0.00    +0.113 A 
ATOM     20  N   UNL     1       0.061  -0.036  -0.008  0.00  0.00    -0.240 NA
ATOM     21  C   UNL     1       1.226  -0.664  -0.017  0.00  0.00    +0.124 A 
ATOM     22  C   UNL     1       2.418   0.055  -0.021  0.00  0.00    +0.044 A 
ATOM     23  N   UNL     1       1.260  -2.055  -0.022  0.00  0.00    -0.279 N 
ATOM     24  C   UNL     1       0.082  -2.778   0.090  0.00  0.00    +0.164 A 
ATOM     25  N   UNL     1      -1.155  -2.328   0.116  0.00  0.00    -0.233 NA
ATOM     26  C   UNL     1      -2.179  -3.154   0.228  0.00  0.00    +0.124 A 
ATOM     27  C   UNL     1      -1.898  -4.477   0.313  0.00  0.00    +0.011 A 
ATOM     28  S   UNL     1      -0.115  -4.445   0.218  0.00  0.00    -0.057 S 
ATOM     29  H   UNL     1       2.108  -2.519  -0.104  0.00  0.00    +0.155 HD
ENDBRANCH  16  27
ENDBRANCH   1  16
TORSDOF 5
