REMARK  Name = CHEMBL200874
REMARK  10 active torsions:
REMARK  status: ('A' for Active; 'I' for Inactive)
REMARK    1  A    between atoms: C_1  and  C_2
REMARK    2  A    between atoms: C_10  and  O_11
REMARK    3  A    between atoms: N_13  and  C_14
REMARK    4  A    between atoms: C_17  and  O_29
REMARK    5  A    between atoms: C_18  and  O_24
REMARK    6  A    between atoms: O_24  and  C_25
REMARK    7  A    between atoms: C_25  and  C_26
REMARK    8  A    between atoms: C_26  and  O_27
REMARK    9  A    between atoms: O_27  and  C_28
REMARK   10  A    between atoms: O_29  and  C_30
REMARK                            x       y       z     vdW  Elec       q    Type
REMARK                         _______ _______ _______ _____ _____    ______ ____
ROOT
ATOM      1  C   UNL     1       1.157  -7.316  -3.897  0.00  0.00    +0.054 C 
ATOM      2  C   UNL     1       2.106  -7.281  -5.097  0.00  0.00    +0.193 C 
ATOM      3  C   UNL     1       2.645  -5.850  -5.333  0.00  0.00    +0.161 C 
ATOM      4  N   UNL     1       3.921  -5.870  -4.590  0.00  0.00    -0.230 N 
ATOM      5  C   UNL     1       4.219  -7.146  -4.321  0.00  0.00    +0.408 C 
ATOM      6  O   UNL     1       5.204  -7.488  -3.692  0.00  0.00    -0.226 OA
ATOM      7  O   UNL     1       3.316  -8.013  -4.819  0.00  0.00    -0.445 OA
ATOM      8  C   UNL     1       4.646  -4.807  -4.249  0.00  0.00    +0.090 C 
ATOM      9  C   UNL     1       5.776  -4.969  -3.420  0.00  0.00    +0.075 C 
ATOM     10  C   UNL     1       6.529  -3.899  -3.060  0.00  0.00    +0.144 C 
ATOM     11  C   UNL     1       6.165  -2.551  -3.538  0.00  0.00    +0.111 C 
ATOM     12  N   UNL     1       6.892  -1.503  -3.193  0.00  0.00    -0.224 NA
ATOM     13  C   UNL     1       4.992  -2.387  -4.397  0.00  0.00    +0.084 C 
ATOM     14  C   UNL     1       4.264  -3.476  -4.744  0.00  0.00    +0.203 C 
ATOM     15  O   UNL     1       3.177  -3.338  -5.544  0.00  0.00    -0.286 OA
ENDROOT
BRANCH  12  16
ATOM     16  C   UNL     1       8.025  -1.672  -2.486  0.00  0.00    +0.164 A 
ATOM     17  C   UNL     1       9.329  -1.767  -3.148  0.00  0.00    +0.048 A 
ATOM     18  C   UNL     1       9.469  -1.687  -4.533  0.00  0.00    +0.063 A 
ATOM     19  C   UNL     1      10.725  -1.782  -5.093  0.00  0.00    +0.162 A 
ATOM     20  C   UNL     1      11.858  -1.959  -4.282  0.00  0.00    +0.164 A 
ATOM     21  C   UNL     1      11.742  -2.040  -2.924  0.00  0.00    +0.078 A 
ATOM     22  C   UNL     1      10.476  -1.946  -2.327  0.00  0.00    +0.080 A 
ATOM     23  N   UNL     1      10.308  -2.018  -1.003  0.00  0.00    -0.235 NA
ATOM     24  C   UNL     1       9.115  -1.926  -0.461  0.00  0.00    +0.224 A 
ATOM     25  N   UNL     1       8.006  -1.755  -1.152  0.00  0.00    -0.216 NA
BRANCH  19  26
ATOM     26  O   UNL     1      10.868  -1.706  -6.442  0.00  0.00    -0.491 OA
ATOM     27  C   UNL     1       9.678  -1.526  -7.212  0.00  0.00    +0.277 C 
ENDBRANCH  19  26
BRANCH  20  28
ATOM     28  O   UNL     1      13.085  -2.051  -4.856  0.00  0.00    -0.486 OA
BRANCH  28  29
ATOM     29  C   UNL     1      14.200  -2.230  -3.979  0.00  0.00    +0.257 C 
BRANCH  29  30
ATOM     30  C   UNL     1      15.488  -2.311  -4.801  0.00  0.00    +0.200 C 
BRANCH  30  31
ATOM     31  O   UNL     1      15.716  -1.060  -5.453  0.00  0.00    -0.380 OA
ATOM     32  C   UNL     1      16.901  -1.028  -6.252  0.00  0.00    +0.194 C 
ENDBRANCH  30  31
ENDBRANCH  29  30
ENDBRANCH  28  29
ENDBRANCH  20  28
ENDBRANCH  12  16
BRANCH  10  33
ATOM     33  O   UNL     1       7.611  -4.068  -2.264  0.00  0.00    -0.505 OA
ATOM     34  H   UNL     1       7.768  -4.986  -2.004  0.00  0.00    +0.292 HD
ENDBRANCH  10  33
TORSDOF 7
