REMARK  Name = CHEMBL190872
REMARK  8 active torsions:
REMARK  status: ('A' for Active; 'I' for Inactive)
REMARK    1  A    between atoms: C_1  and  C_2
REMARK    2  A    between atoms: C_2  and  S_3
REMARK    3  A    between atoms: S_3  and  C_6
REMARK    4  A    between atoms: C_9  and  O_27
REMARK    5  A    between atoms: C_10  and  N_12
REMARK    6  A    between atoms: C_16  and  C_18
REMARK    7  A    between atoms: C_21  and  C_24
REMARK    8  A    between atoms: O_27  and  C_28
REMARK                            x       y       z     vdW  Elec       q    Type
REMARK                         _______ _______ _______ _____ _____    ______ ____
ROOT
ATOM      1  N   UNL     1      -1.360  -5.140  -2.394  0.00  0.00    -0.266 N 
ATOM      2  C   UNL     1      -2.432  -4.462  -2.935  0.00  0.00    +0.292 A 
ATOM      3  N   UNL     1      -2.518  -3.158  -3.075  0.00  0.00    -0.203 NA
ATOM      4  C   UNL     1      -3.698  -2.860  -3.636  0.00  0.00    +0.162 A 
ATOM      5  C   UNL     1      -4.360  -4.028  -3.847  0.00  0.00    +0.157 A 
ATOM      6  O   UNL     1      -3.554  -5.025  -3.408  0.00  0.00    -0.424 OA
ATOM      7  H   UNL     1      -1.354  -6.110  -2.388  0.00  0.00    +0.157 HD
ENDROOT
BRANCH   1  12
ATOM      8  C   UNL     1       0.721  -2.350  -1.207  0.00  0.00    +0.090 A 
ATOM      9  C   UNL     1       1.854  -3.023  -0.789  0.00  0.00    +0.030 A 
ATOM     10  C   UNL     1       1.926  -4.400  -0.901  0.00  0.00    +0.049 A 
ATOM     11  C   UNL     1       0.861  -5.108  -1.434  0.00  0.00    +0.141 A 
ATOM     12  C   UNL     1      -0.281  -4.430  -1.855  0.00  0.00    +0.079 A 
ATOM     13  C   UNL     1      -0.348  -3.049  -1.735  0.00  0.00    +0.054 A 
BRANCH   8  14
ATOM     14  S   UNL     1       0.637  -0.596  -1.061  0.00  0.00    -0.003 S 
ATOM     15  O   UNL     1      -0.280  -0.191  -2.067  0.00  0.00    -0.169 OA
ATOM     16  O   UNL     1       1.991  -0.164  -1.098  0.00  0.00    -0.169 OA
BRANCH  14  18
ATOM     17  C   UNL     1      -0.188   1.208   0.823  0.00  0.00    +0.028 C 
ATOM     18  C   UNL     1      -0.068  -0.299   0.584  0.00  0.00    +0.168 C 
ENDBRANCH  14  18
ENDBRANCH   8  14
BRANCH  11  19
ATOM     19  O   UNL     1       0.930  -6.461  -1.546  0.00  0.00    -0.493 OA
ATOM     20  C   UNL     1       2.132  -7.089  -1.094  0.00  0.00    +0.277 C 
ENDBRANCH  11  19
ENDBRANCH   1  12
BRANCH   5  21
ATOM     21  C   UNL     1      -5.699  -4.182  -4.444  0.00  0.00    +0.019 A 
ATOM     22  C   UNL     1      -6.412  -3.053  -4.862  0.00  0.00    +0.012 A 
ATOM     23  C   UNL     1      -7.652  -3.195  -5.416  0.00  0.00    +0.014 A 
ATOM     24  C   UNL     1      -8.209  -4.470  -5.564  0.00  0.00    +0.037 A 
ATOM     25  C   UNL     1      -7.496  -5.598  -5.146  0.00  0.00    +0.014 A 
ATOM     26  C   UNL     1      -6.254  -5.457  -4.599  0.00  0.00    +0.012 A 
BRANCH  24  27
ATOM     27  C   UNL     1      -9.549  -4.623  -6.161  0.00  0.00    +0.242 C 
ATOM     28  O   UNL     1     -10.169  -3.642  -6.524  0.00  0.00    -0.270 OA
ATOM     29  N   UNL     1     -10.086  -5.851  -6.304  0.00  0.00    -0.325 N 
ATOM     30  H   UNL     1      -9.592  -6.634  -6.015  0.00  0.00    +0.145 HD
ATOM     31  H   UNL     1     -10.968  -5.952  -6.697  0.00  0.00    +0.145 HD
ENDBRANCH  24  27
ENDBRANCH   5  21
TORSDOF 6
