REMARK  Name = CHEMBL255744
REMARK  5 active torsions:
REMARK  status: ('A' for Active; 'I' for Inactive)
REMARK    1  A    between atoms: C_1  and  C_2
REMARK    2  A    between atoms: C_4  and  C_29
REMARK    3  A    between atoms: C_6  and  N_8
REMARK    4  A    between atoms: N_11  and  C_12
REMARK    5  A    between atoms: C_15  and  C_18
REMARK                            x       y       z     vdW  Elec       q    Type
REMARK                         _______ _______ _______ _____ _____    ______ ____
ROOT
ATOM      1  C   UNL     1       0.232  -2.225   5.987  0.00  0.00    +0.035 A 
ATOM      2  C   UNL     1       0.206  -0.835   6.003  0.00  0.00    +0.024 A 
ATOM      3  C   UNL     1       0.199  -0.159   7.204  0.00  0.00    +0.010 A 
ATOM      4  C   UNL     1       0.217  -0.871   8.404  0.00  0.00    -0.017 A 
ATOM      5  C   UNL     1       0.243  -2.266   8.384  0.00  0.00    +0.010 A 
ATOM      6  C   UNL     1       0.244  -2.937   7.181  0.00  0.00    +0.024 A 
ENDROOT
BRANCH   4   7
ATOM      7  C   UNL     1       0.210  -0.148   9.696  0.00  0.00    -0.002 A 
ATOM      8  C   UNL     1       1.104   0.894   9.943  0.00  0.00    +0.029 A 
ATOM      9  C   UNL     1       1.065   1.545  11.163  0.00  0.00    +0.114 A 
ATOM     10  N   UNL     1       0.205   1.208  12.101  0.00  0.00    -0.236 NA
ATOM     11  C   UNL     1      -0.672   0.225  11.929  0.00  0.00    +0.158 A 
ATOM     12  C   UNL     1      -0.703  -0.486  10.714  0.00  0.00    +0.067 A 
ATOM     13  C   UNL     1      -1.767  -1.479  10.841  0.00  0.00    +0.148 A 
ATOM     14  N   UNL     1      -2.297  -1.338  12.027  0.00  0.00    -0.157 NA
ATOM     15  N   UNL     1      -1.649  -0.313  12.722  0.00  0.00    -0.258 N 
ATOM     16  H   UNL     1      -1.864  -0.021  13.622  0.00  0.00    +0.191 HD
ATOM     17  N   UNL     1      -2.148  -2.409   9.870  0.00  0.00    -0.341 N 
ATOM     18  H   UNL     1      -1.690  -2.434   9.015  0.00  0.00    +0.144 HD
ATOM     19  H   UNL     1      -2.870  -3.030  10.051  0.00  0.00    +0.144 HD
ENDBRANCH   4   7
BRANCH   1  23
ATOM     20  N   UNL     1       0.788  -2.981   2.500  0.00  0.00    -0.269 N 
ATOM     21  C   UNL     1       0.868  -2.375   3.701  0.00  0.00    +0.308 C 
ATOM     22  O   UNL     1       1.508  -1.349   3.822  0.00  0.00    -0.252 OA
ATOM     23  N   UNL     1       0.239  -2.908   4.767  0.00  0.00    -0.269 N 
ATOM     24  H   UNL     1       0.217  -3.757   2.385  0.00  0.00    +0.156 HD
ATOM     25  H   UNL     1      -0.208  -3.765   4.689  0.00  0.00    +0.156 HD
BRANCH  20  31
ATOM     26  C   UNL     1       1.202  -2.199  -2.337  0.00  0.00    +0.044 C 
ATOM     27  C   UNL     1       1.752  -2.098  -0.937  0.00  0.00    -0.048 A 
ATOM     28  C   UNL     1       2.990  -1.521  -0.721  0.00  0.00    +0.006 A 
ATOM     29  C   UNL     1       3.499  -1.427   0.561  0.00  0.00    -0.048 A 
ATOM     30  C   UNL     1       2.771  -1.910   1.631  0.00  0.00    +0.026 A 
ATOM     31  C   UNL     1       1.528  -2.490   1.418  0.00  0.00    +0.035 A 
ATOM     32  C   UNL     1       1.018  -2.578   0.129  0.00  0.00    +0.026 A 
ATOM     33  C   UNL     1       4.848  -0.797   0.792  0.00  0.00    +0.044 C 
ENDBRANCH  20  31
ENDBRANCH   1  23
TORSDOF 3
