REMARK  Name = CHEMBL231370
REMARK  8 active torsions:
REMARK  status: ('A' for Active; 'I' for Inactive)
REMARK    1  A    between atoms: C_1  and  N_2
REMARK    2  A    between atoms: C_6  and  C_8
REMARK    3  A    between atoms: C_8  and  O_9
REMARK    4  A    between atoms: O_9  and  C_10
REMARK    5  A    between atoms: C_12  and  N_20
REMARK    6  A    between atoms: C_15  and  C_16
REMARK    7  A    between atoms: C_27  and  O_31
REMARK    8  A    between atoms: O_31  and  C_32
REMARK                            x       y       z     vdW  Elec       q    Type
REMARK                         _______ _______ _______ _____ _____    ______ ____
ROOT
ATOM      1  N   UNL     1       3.168   4.082   5.105  0.00  0.00    -0.285 N 
ATOM      2  C   UNL     1       4.189   3.605   4.310  0.00  0.00    +0.198 A 
ATOM      3  N   UNL     1       5.466   4.090   4.297  0.00  0.00    -0.326 N 
ATOM      4  H   UNL     1       5.809   4.819   4.836  0.00  0.00    +0.169 HD
ATOM      5  C   UNL     1       6.179   3.346   3.369  0.00  0.00    +0.068 A 
ATOM      6  C   UNL     1       7.492   3.370   2.923  0.00  0.00    +0.031 A 
ATOM      7  C   UNL     1       7.909   2.474   1.962  0.00  0.00    +0.048 A 
ATOM      8  C   UNL     1       7.018   1.544   1.434  0.00  0.00    +0.131 A 
ATOM      9  C   UNL     1       5.707   1.508   1.867  0.00  0.00    +0.076 A 
ATOM     10  C   UNL     1       5.274   2.410   2.841  0.00  0.00    +0.094 A 
ATOM     11  N   UNL     1       4.081   2.615   3.458  0.00  0.00    -0.214 NA
ATOM     12  H   UNL     1       3.348   4.770   5.765  0.00  0.00    +0.155 HD
ENDROOT
BRANCH   1  15
ATOM     13  C   UNL     1       0.399   1.741   4.482  0.00  0.00    +0.134 A 
ATOM     14  C   UNL     1       1.684   2.241   4.624  0.00  0.00    +0.069 A 
ATOM     15  C   UNL     1       1.873   3.574   4.960  0.00  0.00    +0.037 A 
ATOM     16  C   UNL     1       0.775   4.403   5.154  0.00  0.00    +0.024 A 
ATOM     17  C   UNL     1      -0.504   3.900   5.011  0.00  0.00    +0.018 A 
ATOM     18  C   UNL     1      -0.694   2.574   4.671  0.00  0.00    +0.096 A 
BRANCH  18  19
ATOM     19  C   UNL     1      -2.091   2.032   4.510  0.00  0.00    +0.421 C 
ATOM     20  F   UNL     1      -3.018   3.052   4.749  0.00  0.00    -0.166 F 
ATOM     21  F   UNL     1      -2.256   1.547   3.208  0.00  0.00    -0.166 F 
ATOM     22  F   UNL     1      -2.296   0.993   5.424  0.00  0.00    -0.166 F 
ENDBRANCH  18  19
BRANCH  13  23
ATOM     23  O   UNL     1       0.210   0.436   4.152  0.00  0.00    -0.493 OA
BRANCH  23  24
ATOM     24  C   UNL     1       1.380  -0.364   3.973  0.00  0.00    +0.214 C 
BRANCH  24  30
ATOM     25  C   UNL     1       3.366  -1.746   3.383  0.00  0.00    -0.096 C 
ATOM     26  N   UNL     1       2.164  -2.579   3.245  0.00  0.00    +0.382 N 
ATOM     27  C   UNL     1       2.026  -3.025   1.842  0.00  0.00    -0.079 C 
ATOM     28  C   UNL     1       0.500  -3.023   1.575  0.00  0.00    -0.020 C 
ATOM     29  C   UNL     1       0.043  -1.774   2.375  0.00  0.00    -0.014 C 
ATOM     30  C   UNL     1       0.971  -1.792   3.608  0.00  0.00    -0.031 C 
ATOM     31  H   UNL     1       2.236  -3.384   3.849  0.00  0.00    -0.082 HD
ENDBRANCH  24  30
ENDBRANCH  23  24
ENDBRANCH  13  23
ENDBRANCH   1  15
BRANCH   8  32
ATOM     32  O   UNL     1       7.441   0.665   0.486  0.00  0.00    -0.455 OA
BRANCH  32  33
ATOM     33  C   UNL     1       8.184  -0.395   0.887  0.00  0.00    +0.139 A 
ATOM     34  C   UNL     1       8.407  -0.642   2.230  0.00  0.00    +0.064 A 
ATOM     35  C   UNL     1       9.173  -1.738   2.611  0.00  0.00    +0.086 A 
ATOM     36  N   UNL     1       9.698  -2.555   1.729  0.00  0.00    -0.360 N 
ATOM     37  C   UNL     1       9.523  -2.376   0.415  0.00  0.00    +0.050 A 
ATOM     38  C   UNL     1       8.750  -1.286  -0.053  0.00  0.00    +0.041 A 
ATOM     39  C   UNL     1       8.565  -1.107  -1.431  0.00  0.00    +0.013 A 
ATOM     40  C   UNL     1       9.127  -1.988  -2.306  0.00  0.00    +0.001 A 
ATOM     41  C   UNL     1       9.882  -3.065  -1.849  0.00  0.00    +0.002 A 
ATOM     42  C   UNL     1      10.092  -3.260  -0.518  0.00  0.00    +0.026 A 
ATOM     43  H   UNL     1      10.227  -3.308   2.037  0.00  0.00    +0.165 HD
ENDBRANCH  32  33
ENDBRANCH   8  32
TORSDOF 7
