REMARK  Name = CHEMBL495763
REMARK  5 active torsions:
REMARK  status: ('A' for Active; 'I' for Inactive)
REMARK    1  A    between atoms: C_1  and  C_2
REMARK    2  A    between atoms: C_8  and  N_31
REMARK    3  A    between atoms: C_9  and  C_14
REMARK    4  A    between atoms: C_20  and  N_24
REMARK    5  A    between atoms: N_27  and  C_30
REMARK                            x       y       z     vdW  Elec       q    Type
REMARK                         _______ _______ _______ _____ _____    ______ ____
ROOT
ATOM      1  C   UNL     1      -0.023  -0.280   5.304  0.00  0.00    +0.146 A 
ATOM      2  N   UNL     1      -0.015  -0.989   6.477  0.00  0.00    -0.338 N 
ATOM      3  H   UNL     1       0.075  -1.951   6.567  0.00  0.00    +0.167 HD
ATOM      4  C   UNL     1      -0.161  -0.076   7.508  0.00  0.00    +0.067 A 
ATOM      5  C   UNL     1      -0.223  -0.190   8.889  0.00  0.00    +0.029 A 
ATOM      6  C   UNL     1      -0.377   0.937   9.667  0.00  0.00    +0.025 A 
ATOM      7  C   UNL     1      -0.470   2.195   9.075  0.00  0.00    +0.032 A 
ATOM      8  C   UNL     1      -0.410   2.326   7.700  0.00  0.00    +0.053 A 
ATOM      9  C   UNL     1      -0.253   1.189   6.902  0.00  0.00    +0.091 A 
ATOM     10  N   UNL     1      -0.158   1.001   5.562  0.00  0.00    -0.227 NA
ENDROOT
BRANCH   1  19
ATOM     11  C   UNL     1       0.439   1.608   0.449  0.00  0.00    +0.044 C 
ATOM     12  C   UNL     1       0.449   0.104   0.361  0.00  0.00    -0.040 A 
ATOM     13  C   UNL     1       0.572  -0.518  -0.861  0.00  0.00    +0.004 A 
ATOM     14  C   UNL     1       0.583  -1.903  -0.946  0.00  0.00    +0.002 A 
ATOM     15  C   UNL     1       0.469  -2.678   0.188  0.00  0.00    +0.026 A 
ATOM     16  C   UNL     1       0.344  -2.072   1.433  0.00  0.00    +0.051 A 
ATOM     17  C   UNL     1       0.340  -0.668   1.521  0.00  0.00    +0.023 A 
ATOM     18  C   UNL     1       0.212  -0.036   2.840  0.00  0.00    +0.050 A 
ATOM     19  C   UNL     1       0.106  -0.865   3.959  0.00  0.00    +0.103 A 
ATOM     20  C   UNL     1       0.124  -2.270   3.793  0.00  0.00    +0.262 A 
ATOM     21  O   UNL     1       0.031  -2.986   4.775  0.00  0.00    -0.267 OA
ATOM     22  N   UNL     1       0.229  -2.835   2.579  0.00  0.00    -0.321 N 
ATOM     23  H   UNL     1       0.237  -3.802   2.505  0.00  0.00    +0.169 HD
BRANCH  18  24
ATOM     24  N   UNL     1       0.198   1.331   2.970  0.00  0.00    -0.357 N 
ATOM     25  H   UNL     1      -0.443   1.756   3.562  0.00  0.00    +0.142 HD
ATOM     26  H   UNL     1       0.829   1.872   2.471  0.00  0.00    +0.142 HD
ENDBRANCH  18  24
ENDBRANCH   1  19
BRANCH   7  27
ATOM     27  N   UNL     1      -0.626   3.332   9.876  0.00  0.00    -0.333 N 
ATOM     28  C   UNL     1      -0.610   4.680   9.288  0.00  0.00    +0.086 C 
ATOM     29  C   UNL     1      -1.841   5.443   9.788  0.00  0.00    -0.060 C 
ATOM     30  N   UNL     1      -1.865   5.423  11.256  0.00  0.00    +0.380 N 
ATOM     31  C   UNL     1      -2.033   4.045  11.735  0.00  0.00    -0.060 C 
ATOM     32  C   UNL     1      -0.818   3.212  11.330  0.00  0.00    +0.086 C 
ATOM     33  C   UNL     1      -2.983   6.246  11.737  0.00  0.00    -0.096 C 
ATOM     34  H   UNL     1      -0.998   5.797  11.611  0.00  0.00    -0.082 HD
ENDBRANCH   7  27
TORSDOF 3
