REMARK  Name = CHEMBL98896
REMARK  1 active torsions:
REMARK  status: ('A' for Active; 'I' for Inactive)
REMARK    1  A    between atoms: C_4  and  C_7
REMARK                            x       y       z     vdW  Elec       q    Type
REMARK                         _______ _______ _______ _____ _____    ______ ____
ROOT
ATOM      1  C   UNL     1       3.695  -0.683  -0.024  0.00  0.00    +0.041 A 
ATOM      2  C   UNL     1       3.946  -2.029  -0.042  0.00  0.00    +0.129 A 
ATOM      3  N   UNL     1       5.211  -2.396  -0.059  0.00  0.00    -0.232 NA
ATOM      4  C   UNL     1       6.181  -1.504  -0.059  0.00  0.00    +0.164 A 
ATOM      5  S   UNL     1       5.359  -0.036  -0.042  0.00  0.00    -0.052 S 
ATOM      6  N   UNL     1       7.549  -1.723  -0.075  0.00  0.00    -0.277 N 
ATOM      7  C   UNL     1       8.047  -3.019   0.013  0.00  0.00    +0.143 A 
ATOM      8  C   UNL     1       9.421  -3.235   0.107  0.00  0.00    +0.154 A 
ATOM      9  N   UNL     1       9.889  -4.466   0.191  0.00  0.00    -0.258 NA
ATOM     10  C   UNL     1       9.056  -5.494   0.187  0.00  0.00    +0.130 A 
ATOM     11  C   UNL     1       7.693  -5.284   0.094  0.00  0.00    +0.132 A 
ATOM     12  N   UNL     1       7.216  -4.053   0.015  0.00  0.00    -0.237 NA
ATOM     13  H   UNL     1       8.160  -0.973  -0.148  0.00  0.00    +0.156 HD
ENDROOT
BRANCH   1  17
ATOM     14  C   UNL     1      -0.016   1.381   0.036  0.00  0.00    +0.000 A 
ATOM     15  C   UNL     1       1.170   2.095   0.026  0.00  0.00    +0.001 A 
ATOM     16  C   UNL     1       2.378   1.431   0.006  0.00  0.00    +0.009 A 
ATOM     17  C   UNL     1       2.404   0.035  -0.003  0.00  0.00    -0.010 A 
ATOM     18  C   UNL     1       1.205  -0.679   0.008  0.00  0.00    +0.009 A 
ATOM     19  C   UNL     1       0.003  -0.002   0.027  0.00  0.00    +0.001 A 
ENDBRANCH   1  17
TORSDOF 1
