REMARK  Name = CHEMBL400569
REMARK  8 active torsions:
REMARK  status: ('A' for Active; 'I' for Inactive)
REMARK    1  A    between atoms: C_1  and  C_2
REMARK    2  A    between atoms: C_2  and  N_3
REMARK    3  A    between atoms: N_3  and  C_4
REMARK    4  A    between atoms: C_4  and  C_5
REMARK    5  A    between atoms: C_7  and  C_11
REMARK    6  A    between atoms: C_14  and  C_21
REMARK    7  A    between atoms: C_27  and  N_31
REMARK    8  A    between atoms: N_34  and  C_37
REMARK                            x       y       z     vdW  Elec       q    Type
REMARK                         _______ _______ _______ _____ _____    ______ ____
ROOT
ATOM      1  C   UNL     1       4.915  -3.445   3.514  0.00  0.00    +0.002 A 
ATOM      2  C   UNL     1       5.544  -3.897   4.671  0.00  0.00    +0.024 A 
ATOM      3  C   UNL     1       6.924  -4.095   4.631  0.00  0.00    +0.050 A 
ATOM      4  C   UNL     1       7.919  -4.548   5.611  0.00  0.00    +0.137 A 
ATOM      5  N   UNL     1       9.088  -4.541   5.014  0.00  0.00    -0.168 NA
ATOM      6  N   UNL     1       8.946  -4.112   3.692  0.00  0.00    -0.260 N 
ATOM      7  H   UNL     1       9.669  -4.024   3.051  0.00  0.00    +0.191 HD
ATOM      8  C   UNL     1       7.628  -3.835   3.440  0.00  0.00    +0.156 A 
ATOM      9  N   UNL     1       6.981  -3.405   2.363  0.00  0.00    -0.235 NA
ATOM     10  C   UNL     1       5.681  -3.213   2.367  0.00  0.00    +0.121 A 
ENDROOT
BRANCH   4  11
ATOM     11  C   UNL     1       7.653  -4.938   7.010  0.00  0.00    +0.160 A 
ATOM     12  N   UNL     1       8.602  -5.352   7.906  0.00  0.00    -0.337 N 
ATOM     13  H   UNL     1       9.553  -5.440   7.738  0.00  0.00    +0.167 HD
ATOM     14  C   UNL     1       7.950  -5.622   9.097  0.00  0.00    +0.067 A 
ATOM     15  C   UNL     1       8.371  -6.066  10.342  0.00  0.00    +0.029 A 
ATOM     16  C   UNL     1       7.453  -6.244  11.355  0.00  0.00    +0.025 A 
ATOM     17  C   UNL     1       6.102  -5.979  11.137  0.00  0.00    +0.032 A 
ATOM     18  C   UNL     1       5.667  -5.536   9.903  0.00  0.00    +0.053 A 
ATOM     19  C   UNL     1       6.589  -5.352   8.868  0.00  0.00    +0.091 A 
ATOM     20  N   UNL     1       6.473  -4.935   7.583  0.00  0.00    -0.226 NA
BRANCH  17  21
ATOM     21  N   UNL     1       5.181  -6.164  12.175  0.00  0.00    -0.333 N 
ATOM     22  C   UNL     1       3.770  -5.781  12.010  0.00  0.00    +0.086 C 
ATOM     23  C   UNL     1       2.894  -6.966  12.429  0.00  0.00    -0.060 C 
ATOM     24  N   UNL     1       3.254  -7.384  13.790  0.00  0.00    +0.380 N 
ATOM     25  C   UNL     1       4.634  -7.886  13.810  0.00  0.00    -0.060 C 
ATOM     26  C   UNL     1       5.595  -6.752  13.458  0.00  0.00    +0.086 C 
ATOM     27  C   UNL     1       2.341  -8.447  14.232  0.00  0.00    -0.096 C 
ATOM     28  H   UNL     1       3.176  -6.595  14.414  0.00  0.00    -0.082 HD
ENDBRANCH  17  21
ENDBRANCH   4  11
BRANCH   1  31
ATOM     29  C   UNL     1       1.444  -2.571   2.369  0.00  0.00    -0.046 A 
ATOM     30  C   UNL     1       2.814  -2.768   2.335  0.00  0.00    +0.013 A 
ATOM     31  C   UNL     1       3.449  -3.217   3.496  0.00  0.00    +0.002 A 
ATOM     32  C   UNL     1       2.683  -3.447   4.637  0.00  0.00    +0.119 A 
ATOM     33  N   UNL     1       1.381  -3.246   4.622  0.00  0.00    -0.262 NA
ATOM     34  C   UNL     1       0.755  -2.817   3.543  0.00  0.00    +0.112 A 
BRANCH  29  35
ATOM     35  C   UNL     1       0.713  -2.089   1.143  0.00  0.00    -0.045 C 
BRANCH  35  36
ATOM     36  N   UNL     1       0.679  -0.620   1.140  0.00  0.00    +0.382 N 
ATOM     37  H   UNL     1       1.623  -0.262   1.131  0.00  0.00    -0.085 HD
ATOM     38  H   UNL     1       0.203  -0.292   1.966  0.00  0.00    -0.085 HD
BRANCH  36  40
ATOM     39  C   UNL     1      -0.068   1.380  -0.059  0.00  0.00    -0.017 C 
ATOM     40  C   UNL     1      -0.033  -0.149  -0.055  0.00  0.00    -0.086 C 
ENDBRANCH  36  40
ENDBRANCH  35  36
ENDBRANCH  29  35
ENDBRANCH   1  31
TORSDOF 6
