REMARK  Name = CHEMBL515625
REMARK  6 active torsions:
REMARK  status: ('A' for Active; 'I' for Inactive)
REMARK    1  A    between atoms: C_1  and  C_2
REMARK    2  A    between atoms: C_6  and  N_12
REMARK    3  A    between atoms: C_16  and  O_25
REMARK    4  A    between atoms: C_17  and  O_23
REMARK    5  A    between atoms: O_23  and  C_24
REMARK    6  A    between atoms: O_25  and  C_26
REMARK                            x       y       z     vdW  Elec       q    Type
REMARK                         _______ _______ _______ _____ _____    ______ ____
ROOT
ATOM      1  N   UNL     1       0.037  -3.943  -3.920  0.00  0.00    -0.299 N 
ATOM      2  C   UNL     1      -0.078  -3.662  -5.267  0.00  0.00    +0.134 A 
ATOM      3  C   UNL     1      -0.183  -4.703  -6.220  0.00  0.00    +0.044 A 
ATOM      4  C   UNL     1      -0.175  -6.053  -5.847  0.00  0.00    +0.062 A 
ATOM      5  C   UNL     1      -0.279  -7.020  -6.805  0.00  0.00    +0.162 A 
ATOM      6  C   UNL     1      -0.393  -6.677  -8.160  0.00  0.00    +0.164 A 
ATOM      7  C   UNL     1      -0.403  -5.357  -8.553  0.00  0.00    +0.078 A 
ATOM      8  C   UNL     1      -0.298  -4.349  -7.587  0.00  0.00    +0.080 A 
ATOM      9  N   UNL     1      -0.304  -3.048  -7.918  0.00  0.00    -0.235 NA
ATOM     10  C   UNL     1      -0.204  -2.126  -6.990  0.00  0.00    +0.223 A 
ATOM     11  N   UNL     1      -0.100  -2.409  -5.702  0.00  0.00    -0.220 NA
ATOM     12  H   UNL     1       0.129  -4.862  -3.623  0.00  0.00    +0.154 HD
ENDROOT
BRANCH   1  18
ATOM     13  C   UNL     1       0.415   0.653   0.963  0.00  0.00    +0.068 C 
ATOM     14  C   UNL     1      -0.202   0.331  -0.374  0.00  0.00    +0.067 A 
ATOM     15  C   UNL     1       0.009  -0.857  -1.116  0.00  0.00    +0.023 A 
ATOM     16  C   UNL     1       0.774  -2.010  -0.894  0.00  0.00    +0.013 A 
ATOM     17  C   UNL     1       0.776  -3.013  -1.816  0.00  0.00    +0.024 A 
ATOM     18  C   UNL     1       0.021  -2.905  -2.986  0.00  0.00    +0.034 A 
ATOM     19  C   UNL     1      -0.741  -1.776  -3.226  0.00  0.00    +0.051 A 
ATOM     20  C   UNL     1      -0.754  -0.743  -2.294  0.00  0.00    +0.068 A 
ATOM     21  N   UNL     1      -1.387   0.473  -2.235  0.00  0.00    -0.277 N 
ATOM     22  H   UNL     1      -1.985   0.837  -2.906  0.00  0.00    +0.189 HD
ATOM     23  N   UNL     1      -1.021   1.096  -1.036  0.00  0.00    -0.178 NA
ENDBRANCH   1  18
BRANCH   6  24
ATOM     24  O   UNL     1      -0.494  -7.657  -9.095  0.00  0.00    -0.491 OA
ATOM     25  C   UNL     1      -0.608  -7.244 -10.459  0.00  0.00    +0.277 C 
ENDBRANCH   6  24
BRANCH   5  26
ATOM     26  O   UNL     1      -0.271  -8.331  -6.442  0.00  0.00    -0.491 OA
ATOM     27  C   UNL     1      -0.151  -8.616  -5.047  0.00  0.00    +0.277 C 
ENDBRANCH   5  26
TORSDOF 3
