REMARK  Name = CHEMBL376245
REMARK  8 active torsions:
REMARK  status: ('A' for Active; 'I' for Inactive)
REMARK    1  A    between atoms: C_1  and  C_2
REMARK    2  A    between atoms: C_6  and  N_8
REMARK    3  A    between atoms: N_11  and  C_12
REMARK    4  A    between atoms: C_15  and  C_18
REMARK    5  A    between atoms: C_21  and  O_29
REMARK    6  A    between atoms: O_29  and  C_30
REMARK    7  A    between atoms: C_30  and  C_31
REMARK    8  A    between atoms: C_31  and  N_32
REMARK                            x       y       z     vdW  Elec       q    Type
REMARK                         _______ _______ _______ _____ _____    ______ ____
ROOT
ATOM      1  C   UNL     1       0.460 -10.463   3.500  0.00  0.00    -0.005 A 
ATOM      2  C   UNL     1      -0.328 -11.166   2.599  0.00  0.00    +0.013 A 
ATOM      3  C   UNL     1      -0.330 -12.552   2.603  0.00  0.00    +0.048 A 
ATOM      4  C   UNL     1       0.449 -13.257   3.500  0.00  0.00    +0.146 A 
ATOM      5  C   UNL     1       1.252 -12.573   4.418  0.00  0.00    +0.110 A 
ATOM      6  C   UNL     1       1.264 -11.168   4.417  0.00  0.00    +0.052 A 
ATOM      7  C   UNL     1       2.192 -10.763   5.471  0.00  0.00    +0.146 A 
ATOM      8  N   UNL     1       2.671 -11.850   6.018  0.00  0.00    -0.158 NA
ATOM      9  N   UNL     1       2.112 -12.977   5.407  0.00  0.00    -0.272 N 
ATOM     10  H   UNL     1       2.310 -13.898   5.639  0.00  0.00    +0.189 HD
ATOM     11  N   UNL     1       2.512  -9.450   5.828  0.00  0.00    -0.341 N 
ATOM     12  H   UNL     1       2.011  -8.709   5.452  0.00  0.00    +0.144 HD
ATOM     13  H   UNL     1       3.235  -9.280   6.452  0.00  0.00    +0.144 HD
ENDROOT
BRANCH   1  17
ATOM     14  C   UNL     1       0.459  -6.211   3.483  0.00  0.00    +0.035 A 
ATOM     15  C   UNL     1      -0.735  -6.904   3.645  0.00  0.00    +0.024 A 
ATOM     16  C   UNL     1      -0.738  -8.283   3.651  0.00  0.00    +0.010 A 
ATOM     17  C   UNL     1       0.459  -8.982   3.493  0.00  0.00    -0.017 A 
ATOM     18  C   UNL     1       1.656  -8.283   3.330  0.00  0.00    +0.010 A 
ATOM     19  C   UNL     1       1.652  -6.905   3.320  0.00  0.00    +0.024 A 
BRANCH  14  23
ATOM     20  N   UNL     1      -0.490  -2.792   4.164  0.00  0.00    -0.269 N 
ATOM     21  C   UNL     1      -0.420  -4.136   4.245  0.00  0.00    +0.308 C 
ATOM     22  O   UNL     1      -1.149  -4.737   5.010  0.00  0.00    -0.252 OA
ATOM     23  N   UNL     1       0.458  -4.812   3.478  0.00  0.00    -0.269 N 
ATOM     24  H   UNL     1       0.038  -2.318   3.502  0.00  0.00    +0.156 HD
ATOM     25  H   UNL     1       1.090  -4.329   2.922  0.00  0.00    +0.156 HD
BRANCH  20  31
ATOM     26  C   UNL     1      -3.451   1.043   4.998  0.00  0.00    +0.044 C 
ATOM     27  C   UNL     1      -2.772  -0.219   5.464  0.00  0.00    -0.049 A 
ATOM     28  C   UNL     1      -2.972  -0.675   6.755  0.00  0.00    +0.003 A 
ATOM     29  C   UNL     1      -2.351  -1.833   7.186  0.00  0.00    +0.002 A 
ATOM     30  C   UNL     1      -1.528  -2.537   6.329  0.00  0.00    +0.023 A 
ATOM     31  C   UNL     1      -1.324  -2.081   5.034  0.00  0.00    +0.035 A 
ATOM     32  C   UNL     1      -1.954  -0.921   4.601  0.00  0.00    +0.026 A 
ENDBRANCH  20  31
ENDBRANCH  14  23
ENDBRANCH   1  17
BRANCH   4  33
ATOM     33  O   UNL     1       0.435 -14.616   3.491  0.00  0.00    -0.488 OA
BRANCH  33  34
ATOM     34  C   UNL     1      -0.409 -15.249   2.527  0.00  0.00    +0.248 C 
BRANCH  34  35
ATOM     35  C   UNL     1      -0.293 -16.768   2.668  0.00  0.00    +0.148 C 
BRANCH  35  36
ATOM     36  N   UNL     1      -0.819 -17.179   3.972  0.00  0.00    -0.298 N 
ATOM     37  C   UNL     1      -0.014 -17.277   5.196  0.00  0.00    +0.108 C 
ATOM     38  C   UNL     1      -1.032 -17.308   6.357  0.00  0.00    +0.028 C 
ATOM     39  C   UNL     1      -2.290 -17.875   5.659  0.00  0.00    +0.097 C 
ATOM     40  C   UNL     1      -2.101 -17.509   4.203  0.00  0.00    +0.216 C 
ATOM     41  O   UNL     1      -2.979 -17.516   3.366  0.00  0.00    -0.276 OA
ENDBRANCH  35  36
ENDBRANCH  34  35
ENDBRANCH  33  34
ENDBRANCH   4  33
TORSDOF 7
