REMARK  Name = CHEMBL224842
REMARK  5 active torsions:
REMARK  status: ('A' for Active; 'I' for Inactive)
REMARK    1  A    between atoms: C_1  and  S_2
REMARK    2  A    between atoms: S_2  and  C_5
REMARK    3  A    between atoms: N_8  and  C_11
REMARK    4  A    between atoms: C_11  and  C_12
REMARK    5  A    between atoms: C_22  and  C_24
REMARK                            x       y       z     vdW  Elec       q    Type
REMARK                         _______ _______ _______ _____ _____    ______ ____
ROOT
ATOM      1  C   UNL     1       1.240  -3.388  -5.717  0.00  0.00    -0.059 A 
ATOM      2  C   UNL     1       2.199  -4.290  -5.275  0.00  0.00    +0.021 A 
ATOM      3  C   UNL     1       2.014  -5.639  -5.503  0.00  0.00    +0.113 A 
ATOM      4  N   UNL     1       0.941  -6.079  -6.133  0.00  0.00    -0.240 NA
ATOM      5  C   UNL     1       0.005  -5.250  -6.570  0.00  0.00    +0.124 A 
ATOM      6  C   UNL     1       0.124  -3.879  -6.370  0.00  0.00    +0.045 A 
ATOM      7  N   UNL     1      -1.110  -5.757  -7.230  0.00  0.00    -0.279 N 
ATOM      8  C   UNL     1      -1.184  -7.104  -7.528  0.00  0.00    +0.165 A 
ATOM      9  N   UNL     1      -0.345  -8.064  -7.183  0.00  0.00    -0.232 NA
ATOM     10  C   UNL     1      -0.545  -9.309  -7.541  0.00  0.00    +0.139 A 
ATOM     11  C   UNL     1      -1.682  -9.558  -8.296  0.00  0.00    +0.110 A 
ATOM     12  S   UNL     1      -2.369  -7.913  -8.408  0.00  0.00    -0.042 S 
ATOM     13  H   UNL     1      -1.836  -5.165  -7.482  0.00  0.00    +0.155 HD
ENDROOT
BRANCH  11  14
ATOM     14  C   UNL     1      -2.172 -10.792  -8.831  0.00  0.00    +0.108 C 
ATOM     15  N   UNL     1      -2.561 -11.771  -9.257  0.00  0.00    -0.190 NA
ENDBRANCH  11  14
BRANCH   1  16
ATOM     16  C   UNL     1       1.409  -1.909  -5.486  0.00  0.00    -0.043 C 
BRANCH  16  20
ATOM     17  C   UNL     1       0.867  -0.373  -1.548  0.00  0.00    +0.127 C 
ATOM     18  C   UNL     1       0.164   0.309  -2.726  0.00  0.00    +0.007 C 
ATOM     19  C   UNL     1       0.864  -0.086  -4.028  0.00  0.00    -0.077 C 
ATOM     20  N   UNL     1       0.805  -1.542  -4.198  0.00  0.00    +0.382 N 
ATOM     21  C   UNL     1       1.539  -2.200  -3.110  0.00  0.00    -0.077 C 
ATOM     22  C   UNL     1       0.865  -1.887  -1.772  0.00  0.00    +0.007 C 
ATOM     23  H   UNL     1      -0.158  -1.843  -4.183  0.00  0.00    -0.081 HD
BRANCH  17  25
ATOM     24  C   UNL     1      -0.034   1.828  -0.005  0.00  0.00    +0.194 C 
ATOM     25  S   UNL     1      -0.013   0.014  -0.010  0.00  0.00    -0.031 S 
ATOM     26  O   UNL     1       0.778  -0.429   1.084  0.00  0.00    -0.174 OA
ATOM     27  O   UNL     1      -1.351  -0.450  -0.129  0.00  0.00    -0.174 OA
ENDBRANCH  17  25
ENDBRANCH  16  20
ENDBRANCH   1  16
TORSDOF 4
