REMARK  Name = CHEMBL424323
REMARK  8 active torsions:
REMARK  status: ('A' for Active; 'I' for Inactive)
REMARK    1  A    between atoms: C_1  and  C_2
REMARK    2  A    between atoms: C_2  and  O_3
REMARK    3  A    between atoms: O_3  and  C_4
REMARK    4  A    between atoms: C_4  and  C_5
REMARK    5  A    between atoms: N_17  and  C_18
REMARK    6  A    between atoms: C_18  and  C_19
REMARK    7  A    between atoms: C_19  and  C_20
REMARK    8  A    between atoms: C_20  and  O_21
REMARK                            x       y       z     vdW  Elec       q    Type
REMARK                         _______ _______ _______ _____ _____    ______ ____
ROOT
ATOM      1  C   UNL     1       1.467  -2.260  -2.550  0.00  0.00    -0.021 A 
ATOM      2  C   UNL     1       0.751  -2.436  -3.724  0.00  0.00    +0.008 A 
ATOM      3  C   UNL     1       1.396  -2.776  -4.894  0.00  0.00    +0.027 A 
ATOM      4  C   UNL     1       2.778  -2.946  -4.904  0.00  0.00    +0.050 A 
ATOM      5  C   UNL     1       3.499  -2.767  -3.715  0.00  0.00    +0.008 A 
ATOM      6  C   UNL     1       2.836  -2.418  -2.541  0.00  0.00    +0.016 A 
ATOM      7  C   UNL     1       4.916  -3.013  -4.045  0.00  0.00    +0.013 A 
ATOM      8  C   UNL     1       6.087  -2.990  -3.303  0.00  0.00    -0.008 A 
ATOM      9  C   UNL     1       7.308  -3.274  -3.907  0.00  0.00    +0.050 A 
ATOM     10  C   UNL     1       7.350  -3.589  -5.286  0.00  0.00    +0.000 A 
ATOM     11  C   UNL     1       6.175  -3.611  -6.020  0.00  0.00    -0.011 A 
ATOM     12  C   UNL     1       4.955  -3.326  -5.416  0.00  0.00    +0.055 A 
ATOM     13  N   UNL     1       3.667  -3.279  -5.910  0.00  0.00    -0.339 N 
ATOM     14  C   UNL     1       6.531  -3.974  -7.442  0.00  0.00    +0.073 C 
ATOM     15  C   UNL     1       8.028  -4.161  -7.461  0.00  0.00    -0.035 A 
ATOM     16  C   UNL     1       8.493  -3.927  -6.168  0.00  0.00    -0.013 A 
ATOM     17  C   UNL     1       9.860  -4.034  -5.902  0.00  0.00    +0.009 A 
ATOM     18  C   UNL     1      10.734  -4.369  -6.916  0.00  0.00    +0.001 A 
ATOM     19  C   UNL     1      10.262  -4.598  -8.196  0.00  0.00    +0.000 A 
ATOM     20  C   UNL     1       8.909  -4.495  -8.466  0.00  0.00    +0.004 A 
ATOM     21  C   UNL     1       8.365  -3.174  -2.889  0.00  0.00    +0.245 C 
ATOM     22  O   UNL     1       9.548  -3.364  -3.095  0.00  0.00    -0.270 OA
ATOM     23  N   UNL     1       7.837  -2.843  -1.698  0.00  0.00    -0.307 N 
ATOM     24  C   UNL     1       6.385  -2.700  -1.852  0.00  0.00    +0.141 C 
ATOM     25  H   UNL     1       8.333  -2.719  -0.874  0.00  0.00    +0.149 HD
ENDROOT
BRANCH   1  26
ATOM     26  C   UNL     1       0.746  -1.888  -1.280  0.00  0.00    +0.195 C 
BRANCH  26  27
ATOM     27  O   UNL     1       0.671  -0.465  -1.174  0.00  0.00    -0.375 OA
BRANCH  27  29
ATOM     28  C   UNL     1      -0.019   1.526   0.010  0.00  0.00    +0.034 C 
ATOM     29  C   UNL     1       0.002  -0.004   0.002  0.00  0.00    +0.157 C 
ENDBRANCH  27  29
ENDBRANCH  26  27
ENDBRANCH   1  26
BRANCH  13  30
ATOM     30  C   UNL     1       3.295  -3.546  -7.301  0.00  0.00    +0.124 C 
BRANCH  30  31
ATOM     31  C   UNL     1       3.336  -2.241  -8.099  0.00  0.00    +0.049 C 
BRANCH  31  32
ATOM     32  C   UNL     1       2.947  -2.520  -9.552  0.00  0.00    +0.157 C 
BRANCH  32  33
ATOM     33  O   UNL     1       2.986  -1.301 -10.297  0.00  0.00    -0.395 OA
ATOM     34  H   UNL     1       2.749  -1.403 -11.230  0.00  0.00    +0.209 HD
ENDBRANCH  32  33
ENDBRANCH  31  32
ENDBRANCH  30  31
ENDBRANCH  13  30
TORSDOF 7
