REMARK  Name = CHEMBL498214
REMARK  4 active torsions:
REMARK  status: ('A' for Active; 'I' for Inactive)
REMARK    1  A    between atoms: C_1  and  N_2
REMARK    2  A    between atoms: C_8  and  C_10
REMARK    3  A    between atoms: C_17  and  C_20
REMARK    4  A    between atoms: C_21  and  N_32
REMARK                            x       y       z     vdW  Elec       q    Type
REMARK                         _______ _______ _______ _____ _____    ______ ____
ROOT
ATOM      1  C   UNL     1      -0.064  -4.247   2.721  0.00  0.00    +0.039 A 
ATOM      2  C   UNL     1       1.238  -3.774   2.931  0.00  0.00    +0.015 A 
ATOM      3  C   UNL     1       2.042  -4.353   3.870  0.00  0.00    +0.028 A 
ATOM      4  C   UNL     1       1.575  -5.421   4.628  0.00  0.00    +0.067 A 
ATOM      5  C   UNL     1       0.269  -5.909   4.431  0.00  0.00    +0.090 A 
ATOM      6  C   UNL     1      -0.552  -5.310   3.474  0.00  0.00    +0.043 A 
ATOM      7  N   UNL     1       0.090  -6.938   5.297  0.00  0.00    -0.227 NA
ATOM      8  C   UNL     1       1.183  -7.113   6.003  0.00  0.00    +0.146 A 
ATOM      9  N   UNL     1       2.130  -6.197   5.625  0.00  0.00    -0.338 N 
ATOM     10  H   UNL     1       3.025  -6.110   5.989  0.00  0.00    +0.167 HD
ENDROOT
BRANCH   8  11
ATOM     11  C   UNL     1       1.364  -8.138   7.044  0.00  0.00    +0.103 A 
ATOM     12  C   UNL     1       0.378  -9.102   7.259  0.00  0.00    +0.050 A 
ATOM     13  C   UNL     1       0.606 -10.103   8.309  0.00  0.00    +0.020 A 
ATOM     14  C   UNL     1      -0.341 -11.097   8.576  0.00  0.00    +0.012 A 
ATOM     15  C   UNL     1      -0.102 -12.015   9.559  0.00  0.00    +0.001 A 
ATOM     16  C   UNL     1       1.074 -11.970  10.295  0.00  0.00    +0.002 A 
ATOM     17  C   UNL     1       2.021 -10.999  10.049  0.00  0.00    +0.026 A 
ATOM     18  C   UNL     1       1.799 -10.053   9.053  0.00  0.00    +0.051 A 
ATOM     19  N   UNL     1       2.735  -9.073   8.790  0.00  0.00    -0.321 N 
ATOM     20  H   UNL     1       3.554  -9.050   9.309  0.00  0.00    +0.169 HD
ATOM     21  C   UNL     1       2.542  -8.154   7.829  0.00  0.00    +0.262 A 
ATOM     22  O   UNL     1       3.400  -7.312   7.632  0.00  0.00    -0.267 OA
BRANCH  12  23
ATOM     23  N   UNL     1      -0.773  -9.114   6.510  0.00  0.00    -0.357 N 
ATOM     24  H   UNL     1      -0.949  -8.399   5.879  0.00  0.00    +0.142 HD
ATOM     25  H   UNL     1      -1.411  -9.839   6.612  0.00  0.00    +0.142 HD
ENDBRANCH  12  23
ENDBRANCH   8  11
BRANCH   1  33
ATOM     26  C   UNL     1       0.529  -4.353  -3.458  0.00  0.00    -0.096 C 
ATOM     27  N   UNL     1       0.347  -3.646  -2.183  0.00  0.00    +0.380 N 
ATOM     28  C   UNL     1       1.092  -4.345  -1.128  0.00  0.00    -0.060 C 
ATOM     29  C   UNL     1       0.998  -3.547   0.177  0.00  0.00    +0.089 C 
ATOM     30  N   UNL     1      -0.423  -3.322   0.484  0.00  0.00    -0.301 N 
ATOM     31  C   UNL     1      -1.283  -2.775  -0.576  0.00  0.00    +0.089 C 
ATOM     32  C   UNL     1      -1.081  -3.609  -1.845  0.00  0.00    -0.060 C 
ATOM     33  C   UNL     1      -0.923  -3.611   1.702  0.00  0.00    +0.247 C 
ATOM     34  O   UNL     1      -2.081  -3.347   1.962  0.00  0.00    -0.270 OA
ATOM     35  H   UNL     1       0.696  -2.703  -2.269  0.00  0.00    -0.082 HD
ENDBRANCH   1  33
TORSDOF 3
