REMARK  Name = CHEMBL117166
REMARK  6 active torsions:
REMARK  status: ('A' for Active; 'I' for Inactive)
REMARK    1  A    between atoms: C_3  and  C_7
REMARK    2  A    between atoms: C_14  and  C_16
REMARK    3  A    between atoms: C_19  and  O_22
REMARK    4  A    between atoms: O_22  and  C_23
REMARK    5  A    between atoms: C_23  and  C_24
REMARK    6  A    between atoms: C_24  and  N_25
REMARK                            x       y       z     vdW  Elec       q    Type
REMARK                         _______ _______ _______ _____ _____    ______ ____
ROOT
ATOM      1  C   UNL     1       8.216   1.884   3.147  0.00  0.00    -0.015 A 
ATOM      2  C   UNL     1       9.333   1.428   2.450  0.00  0.00    +0.012 A 
ATOM      3  C   UNL     1      10.550   1.325   3.091  0.00  0.00    +0.046 A 
ATOM      4  C   UNL     1      10.662   1.675   4.430  0.00  0.00    +0.120 A 
ATOM      5  C   UNL     1       9.551   2.129   5.127  0.00  0.00    +0.046 A 
ATOM      6  C   UNL     1       8.333   2.240   4.490  0.00  0.00    +0.012 A 
ENDROOT
BRANCH   1  14
ATOM      7  C   UNL     1       3.385   2.462   0.438  0.00  0.00    +0.047 A 
ATOM      8  C   UNL     1       3.785   3.460  -0.456  0.00  0.00    +0.145 A 
ATOM      9  N   UNL     1       5.044   3.751  -0.230  0.00  0.00    -0.173 NA
ATOM     10  N   UNL     1       5.519   2.958   0.820  0.00  0.00    -0.221 N 
ATOM     11  C   UNL     1       4.490   2.157   1.243  0.00  0.00    +0.163 A 
ATOM     12  N   UNL     1       4.662   1.293   2.248  0.00  0.00    -0.235 NA
ATOM     13  C   UNL     1       5.818   1.188   2.860  0.00  0.00    +0.123 A 
ATOM     14  C   UNL     1       6.905   1.995   2.460  0.00  0.00    +0.018 A 
ATOM     15  C   UNL     1       6.738   2.875   1.428  0.00  0.00    +0.124 A 
BRANCH   7  18
ATOM     16  C   UNL     1      -0.339   2.021   0.658  0.00  0.00    +0.020 A 
ATOM     17  C   UNL     1       0.894   2.645   0.580  0.00  0.00    +0.011 A 
ATOM     18  C   UNL     1       2.040   1.845   0.523  0.00  0.00    +0.005 A 
ATOM     19  C   UNL     1       1.896   0.458   0.546  0.00  0.00    +0.119 A 
ATOM     20  N   UNL     1       0.701  -0.090   0.621  0.00  0.00    -0.263 NA
ATOM     21  C   UNL     1      -0.397   0.639   0.676  0.00  0.00    +0.111 A 
ENDBRANCH   7  18
ENDBRANCH   1  14
BRANCH   4  22
ATOM     22  O   UNL     1      11.863   1.573   5.059  0.00  0.00    -0.494 OA
BRANCH  22  23
ATOM     23  C   UNL     1      11.907   1.949   6.437  0.00  0.00    +0.210 C 
BRANCH  23  24
ATOM     24  C   UNL     1      13.330   1.768   6.970  0.00  0.00    -0.037 C 
BRANCH  24  25
ATOM     25  N   UNL     1      14.238   2.679   6.261  0.00  0.00    +0.382 N 
ATOM     26  C   UNL     1      15.622   2.396   6.660  0.00  0.00    -0.079 C 
ATOM     27  C   UNL     1      16.578   3.287   5.864  0.00  0.00    -0.019 C 
ATOM     28  C   UNL     1      16.254   4.756   6.147  0.00  0.00    -0.004 C 
ATOM     29  C   UNL     1      14.787   5.021   5.797  0.00  0.00    -0.019 C 
ATOM     30  C   UNL     1      13.897   4.066   6.596  0.00  0.00    -0.079 C 
ATOM     31  H   UNL     1      14.142   2.541   5.266  0.00  0.00    -0.082 HD
ENDBRANCH  24  25
ENDBRANCH  23  24
ENDBRANCH  22  23
ENDBRANCH   4  22
TORSDOF 6
