REMARK  Name = CHEMBL478442
REMARK  7 active torsions:
REMARK  status: ('A' for Active; 'I' for Inactive)
REMARK    1  A    between atoms: C_1  and  C_2
REMARK    2  A    between atoms: C_5  and  N_9
REMARK    3  A    between atoms: C_7  and  O_8
REMARK    4  A    between atoms: C_13  and  O_22
REMARK    5  A    between atoms: C_14  and  O_20
REMARK    6  A    between atoms: O_20  and  C_21
REMARK    7  A    between atoms: O_22  and  C_23
REMARK                            x       y       z     vdW  Elec       q    Type
REMARK                         _______ _______ _______ _____ _____    ______ ____
ROOT
ATOM      1  N   UNL     1       0.056  -4.172  -0.026  0.00  0.00    -0.299 N 
ATOM      2  C   UNL     1      -0.045  -4.854  -1.222  0.00  0.00    +0.134 A 
ATOM      3  C   UNL     1      -0.141  -6.265  -1.248  0.00  0.00    +0.044 A 
ATOM      4  C   UNL     1      -0.138  -7.030  -0.075  0.00  0.00    +0.062 A 
ATOM      5  C   UNL     1      -0.233  -8.390  -0.153  0.00  0.00    +0.162 A 
ATOM      6  C   UNL     1      -0.334  -9.030  -1.397  0.00  0.00    +0.164 A 
ATOM      7  C   UNL     1      -0.339  -8.301  -2.565  0.00  0.00    +0.078 A 
ATOM      8  C   UNL     1      -0.243  -6.905  -2.508  0.00  0.00    +0.080 A 
ATOM      9  N   UNL     1      -0.245  -6.149  -3.617  0.00  0.00    -0.235 NA
ATOM     10  C   UNL     1      -0.153  -4.844  -3.532  0.00  0.00    +0.223 A 
ATOM     11  N   UNL     1      -0.061  -4.202  -2.378  0.00  0.00    -0.220 NA
ATOM     12  H   UNL     1      -0.022  -4.651   0.814  0.00  0.00    +0.154 HD
ENDROOT
BRANCH   1  17
ATOM     13  C   UNL     1       0.928   1.436  -0.009  0.00  0.00    +0.047 C 
ATOM     14  C   UNL     1       0.697  -0.053  -0.015  0.00  0.00    -0.009 A 
ATOM     15  C   UNL     1      -0.093  -0.633   0.960  0.00  0.00    +0.009 A 
ATOM     16  C   UNL     1      -0.307  -1.997   0.958  0.00  0.00    +0.024 A 
ATOM     17  C   UNL     1       0.272  -2.791  -0.024  0.00  0.00    +0.036 A 
ATOM     18  C   UNL     1       1.066  -2.211  -1.004  0.00  0.00    +0.069 A 
ATOM     19  C   UNL     1       1.273  -0.840  -1.002  0.00  0.00    +0.122 A 
BRANCH  19  20
ATOM     20  O   UNL     1       2.046  -0.268  -1.963  0.00  0.00    -0.506 OA
ATOM     21  H   UNL     1       2.983  -0.215  -1.734  0.00  0.00    +0.292 HD
ENDBRANCH  19  20
ENDBRANCH   1  17
BRANCH   6  22
ATOM     22  O   UNL     1      -0.427 -10.384  -1.449  0.00  0.00    -0.491 OA
ATOM     23  C   UNL     1      -0.527 -10.978  -2.745  0.00  0.00    +0.277 C 
ENDBRANCH   6  22
BRANCH   5  24
ATOM     24  O   UNL     1      -0.230  -9.131   0.987  0.00  0.00    -0.491 OA
ATOM     25  C   UNL     1      -0.124  -8.421   2.222  0.00  0.00    +0.277 C 
ENDBRANCH   5  24
TORSDOF 4
