REMARK  Name = CHEMBL118569
REMARK  10 active torsions:
REMARK  status: ('A' for Active; 'I' for Inactive)
REMARK    1  A    between atoms: C_1  and  N_2
REMARK    2  A    between atoms: N_2  and  C_3
REMARK    3  A    between atoms: N_2  and  C_7
REMARK    4  A    between atoms: C_3  and  C_4
REMARK    5  A    between atoms: C_4  and  O_5
REMARK    6  A    between atoms: O_5  and  C_6
REMARK    7  A    between atoms: C_7  and  C_8
REMARK    8  A    between atoms: C_8  and  O_9
REMARK    9  A    between atoms: O_9  and  C_10
REMARK   10  A    between atoms: C_17  and  C_20
REMARK                            x       y       z     vdW  Elec       q    Type
REMARK                         _______ _______ _______ _____ _____    ______ ____
ROOT
ATOM      1  C   UNL     1      -0.858   2.081  -3.532  0.00  0.00    +0.121 A 
ATOM      2  C   UNL     1      -1.612   1.295  -4.401  0.00  0.00    +0.047 A 
ATOM      3  C   UNL     1      -2.337   1.873  -5.419  0.00  0.00    +0.030 A 
ATOM      4  C   UNL     1      -2.322   3.253  -5.589  0.00  0.00    +0.047 A 
ATOM      5  C   UNL     1      -1.561   4.050  -4.713  0.00  0.00    +0.004 A 
ATOM      6  C   UNL     1      -0.833   3.453  -3.679  0.00  0.00    +0.055 A 
ATOM      7  C   UNL     1      -1.750   5.433  -5.147  0.00  0.00    +0.036 A 
ATOM      8  C   UNL     1      -2.582   5.401  -6.220  0.00  0.00    +0.053 A 
ATOM      9  N   UNL     1      -2.931   4.099  -6.493  0.00  0.00    -0.354 N 
ATOM     10  H   UNL     1      -3.517   3.817  -7.213  0.00  0.00    +0.166 HD
ENDROOT
BRANCH   8  11
ATOM     11  C   UNL     1      -3.042   6.582  -6.976  0.00  0.00    +0.063 A 
ATOM     12  C   UNL     1      -4.376   6.934  -6.976  0.00  0.00    +0.025 A 
ATOM     13  C   UNL     1      -4.789   8.074  -7.712  0.00  0.00    -0.001 A 
ATOM     14  C   UNL     1      -6.139   8.454  -7.728  0.00  0.00    +0.010 A 
ATOM     15  C   UNL     1      -6.527   9.553  -8.438  0.00  0.00    +0.001 A 
ATOM     16  C   UNL     1      -5.595  10.300  -9.147  0.00  0.00    +0.002 A 
ATOM     17  C   UNL     1      -4.264   9.946  -9.146  0.00  0.00    +0.026 A 
ATOM     18  C   UNL     1      -3.843   8.830  -8.429  0.00  0.00    +0.049 A 
ATOM     19  N   UNL     1      -2.510   8.472  -8.425  0.00  0.00    -0.322 N 
ATOM     20  C   UNL     1      -2.085   7.399  -7.731  0.00  0.00    +0.258 A 
ATOM     21  O   UNL     1      -0.904   7.102  -7.736  0.00  0.00    -0.267 OA
ATOM     22  H   UNL     1      -1.870   9.003  -8.924  0.00  0.00    +0.169 HD
ENDBRANCH   8  11
BRANCH   1  23
ATOM     23  O   UNL     1      -0.148   1.494  -2.532  0.00  0.00    -0.491 OA
BRANCH  23  24
ATOM     24  C   UNL     1      -0.218   0.070  -2.436  0.00  0.00    +0.244 C 
BRANCH  24  25
ATOM     25  C   UNL     1       0.638  -0.405  -1.260  0.00  0.00    +0.125 C 
BRANCH  25  27
ATOM     26  C   UNL     1       1.054   0.014   1.088  0.00  0.00    +0.105 C 
ATOM     27  N   UNL     1       0.078   0.115  -0.005  0.00  0.00    -0.300 NA
BRANCH  27  28
ATOM     28  C   UNL     1      -1.172  -0.576   0.339  0.00  0.00    +0.112 C 
BRANCH  28  29
ATOM     29  C   UNL     1      -1.852   0.150   1.501  0.00  0.00    +0.174 C 
BRANCH  29  30
ATOM     30  O   UNL     1      -2.246   1.458   1.081  0.00  0.00    -0.382 OA
ATOM     31  C   UNL     1      -2.895   2.224   2.098  0.00  0.00    +0.194 C 
ENDBRANCH  29  30
ENDBRANCH  28  29
ENDBRANCH  27  28
ENDBRANCH  25  27
ENDBRANCH  24  25
ENDBRANCH  23  24
ENDBRANCH   1  23
TORSDOF 8
