REMARK  Name = CHEMBL192856
REMARK  19 active torsions:
REMARK  status: ('A' for Active; 'I' for Inactive)
REMARK    1  A    between atoms: C_1  and  C_2
REMARK    2  A    between atoms: C_2  and  N_3
REMARK    3  A    between atoms: N_3  and  C_4
REMARK    4  A    between atoms: N_3  and  C_6
REMARK    5  A    between atoms: C_4  and  C_5
REMARK    6  A    between atoms: C_6  and  C_7
REMARK    7  A    between atoms: C_7  and  C_8
REMARK    8  A    between atoms: C_8  and  C_9
REMARK    9  A    between atoms: C_9  and  C_10
REMARK   10  A    between atoms: C_10  and  N_11
REMARK   11  A    between atoms: C_17  and  C_28
REMARK   12  A    between atoms: N_23  and  C_24
REMARK   13  A    between atoms: C_24  and  C_25
REMARK   14  A    between atoms: C_24  and  C_26
REMARK   15  A    between atoms: C_24  and  C_27
REMARK   16  A    between atoms: C_30  and  O_36
REMARK   17  A    between atoms: C_32  and  O_34
REMARK   18  A    between atoms: O_34  and  C_35
REMARK   19  A    between atoms: O_36  and  C_37
REMARK                            x       y       z     vdW  Elec       q    Type
REMARK                         _______ _______ _______ _____ _____    ______ ____
ROOT
ATOM      1  N   UNL     1       0.448  -5.631   5.127  0.00  0.00    -0.329 N 
ATOM      2  C   UNL     1       0.524  -6.921   5.640  0.00  0.00    +0.121 A 
ATOM      3  C   UNL     1      -0.000  -7.969   4.910  0.00  0.00    +0.071 A 
ATOM      4  C   UNL     1       0.083  -9.267   5.438  0.00  0.00    +0.078 A 
ATOM      5  C   UNL     1       0.706  -9.433   6.704  0.00  0.00    +0.019 A 
ATOM      6  C   UNL     1       0.802 -10.722   7.257  0.00  0.00    +0.023 A 
ATOM      7  C   UNL     1       0.279 -11.780   6.534  0.00  0.00    +0.023 A 
ATOM      8  C   UNL     1      -0.326 -11.538   5.281  0.00  0.00    +0.135 A 
ATOM      9  N   UNL     1      -0.405 -10.323   4.781  0.00  0.00    -0.231 NA
ATOM     10  N   UNL     1      -0.848 -12.604   4.561  0.00  0.00    -0.254 N 
ATOM     11  C   UNL     1      -1.428 -12.389   3.364  0.00  0.00    +0.305 C 
ATOM     12  O   UNL     1      -1.494 -11.261   2.914  0.00  0.00    -0.252 OA
ATOM     13  N   UNL     1      -1.935 -13.424   2.665  0.00  0.00    -0.294 N 
ATOM     14  C   UNL     1       1.208  -8.305   7.369  0.00  0.00    +0.123 A 
ATOM     15  N   UNL     1       1.105  -7.116   6.821  0.00  0.00    -0.240 NA
ATOM     16  H   UNL     1       0.815  -4.887   5.628  0.00  0.00    +0.147 HD
ATOM     17  H   UNL     1      -0.794 -13.504   4.919  0.00  0.00    +0.158 HD
ATOM     18  H   UNL     1      -1.881 -14.323   3.023  0.00  0.00    +0.151 HD
ENDROOT
BRANCH   7  19
ATOM     19  C   UNL     1       0.355 -13.161   7.071  0.00  0.00    -0.008 A 
ATOM     20  C   UNL     1      -0.786 -13.960   7.103  0.00  0.00    +0.054 A 
ATOM     21  C   UNL     1      -0.712 -15.249   7.606  0.00  0.00    +0.124 A 
ATOM     22  C   UNL     1       0.496 -15.744   8.076  0.00  0.00    +0.091 A 
ATOM     23  C   UNL     1       1.633 -14.950   8.046  0.00  0.00    +0.124 A 
ATOM     24  C   UNL     1       1.567 -13.662   7.538  0.00  0.00    +0.054 A 
BRANCH  23  25
ATOM     25  O   UNL     1       2.814 -15.438   8.508  0.00  0.00    -0.495 OA
ATOM     26  C   UNL     1       2.811 -16.775   9.011  0.00  0.00    +0.277 C 
ENDBRANCH  23  25
BRANCH  21  27
ATOM     27  O   UNL     1      -1.824 -16.030   7.638  0.00  0.00    -0.495 OA
ATOM     28  C   UNL     1      -1.675 -17.349   8.169  0.00  0.00    +0.277 C 
ENDBRANCH  21  27
ENDBRANCH   7  19
BRANCH  13  29
ATOM     29  C   UNL     1      -2.566 -13.190   1.363  0.00  0.00    +0.028 C 
ATOM     30  C   UNL     1      -1.548 -12.562   0.409  0.00  0.00    +0.031 C 
ATOM     31  C   UNL     1      -3.053 -14.520   0.786  0.00  0.00    +0.031 C 
ATOM     32  C   UNL     1      -3.755 -12.243   1.536  0.00  0.00    +0.031 C 
ENDBRANCH  13  29
BRANCH   1  33
ATOM     33  C   UNL     1      -0.189  -5.396   3.828  0.00  0.00    +0.103 C 
BRANCH  33  34
ATOM     34  C   UNL     1      -0.140  -3.903   3.499  0.00  0.00    +0.019 C 
BRANCH  34  35
ATOM     35  C   UNL     1      -0.805  -3.658   2.143  0.00  0.00    -0.000 C 
BRANCH  35  36
ATOM     36  C   UNL     1      -0.756  -2.164   1.814  0.00  0.00    -0.019 C 
BRANCH  36  37
ATOM     37  C   UNL     1      -1.421  -1.919   0.458  0.00  0.00    -0.079 C 
BRANCH  37  38
ATOM     38  N   UNL     1      -1.374  -0.485   0.142  0.00  0.00    +0.379 N 
ATOM     39  H   UNL     1      -1.792   0.039   0.895  0.00  0.00    -0.082 HD
BRANCH  38  41
ATOM     40  C   UNL     1       0.082   1.451  -0.216  0.00  0.00    -0.017 C 
ATOM     41  C   UNL     1       0.024  -0.066  -0.029  0.00  0.00    -0.082 C 
ENDBRANCH  38  41
BRANCH  38  42
ATOM     42  C   UNL     1      -2.116  -0.233  -1.101  0.00  0.00    -0.082 C 
ATOM     43  C   UNL     1      -3.600  -0.533  -0.879  0.00  0.00    -0.017 C 
ENDBRANCH  38  42
ENDBRANCH  37  38
ENDBRANCH  36  37
ENDBRANCH  35  36
ENDBRANCH  34  35
ENDBRANCH  33  34
ENDBRANCH   1  33
TORSDOF 12
