REMARK  Name = CHEMBL498088
REMARK  12 active torsions:
REMARK  status: ('A' for Active; 'I' for Inactive)
REMARK    1  A    between atoms: C_1  and  C_2
REMARK    2  A    between atoms: N_4  and  C_5
REMARK    3  A    between atoms: N_4  and  C_11
REMARK    4  A    between atoms: C_5  and  C_6
REMARK    5  A    between atoms: N_8  and  C_9
REMARK    6  A    between atoms: N_8  and  C_10
REMARK    7  A    between atoms: C_14  and  N_17
REMARK    8  A    between atoms: N_17  and  C_18
REMARK    9  A    between atoms: C_18  and  C_33
REMARK   10  A    between atoms: C_23  and  C_29
REMARK   11  A    between atoms: C_29  and  O_31
REMARK   12  A    between atoms: O_31  and  C_32
REMARK                            x       y       z     vdW  Elec       q    Type
REMARK                         _______ _______ _______ _____ _____    ______ ____
ROOT
ATOM      1  C   UNL     1       0.677   2.962  -6.075  0.00  0.00    +0.051 C 
ATOM      2  C   UNL     1       0.871   3.588  -7.303  0.00  0.00    +0.068 C 
ATOM      3  C   UNL     1       1.264   4.991  -7.534  0.00  0.00    +0.010 A 
ATOM      4  C   UNL     1       1.545   6.061  -6.686  0.00  0.00    +0.011 A 
ATOM      5  C   UNL     1       1.889   7.274  -7.207  0.00  0.00    +0.016 A 
ATOM      6  C   UNL     1       1.961   7.449  -8.595  0.00  0.00    +0.061 A 
ATOM      7  C   UNL     1       1.681   6.383  -9.454  0.00  0.00    +0.039 A 
ATOM      8  C   UNL     1       1.332   5.151  -8.929  0.00  0.00    +0.042 A 
ATOM      9  N   UNL     1       1.006   3.937  -9.522  0.00  0.00    -0.281 N 
ATOM     10  C   UNL     1       0.739   3.006  -8.592  0.00  0.00    +0.251 C 
ATOM     11  O   UNL     1       0.429   1.849  -8.817  0.00  0.00    -0.270 OA
ATOM     12  H   UNL     1       0.980   3.783 -10.479  0.00  0.00    +0.155 HD
ENDROOT
BRANCH   1  13
ATOM     13  C   UNL     1       0.716   3.751  -4.831  0.00  0.00    -0.003 A 
ATOM     14  C   UNL     1      -0.103   4.874  -4.686  0.00  0.00    +0.010 A 
ATOM     15  C   UNL     1      -0.061   5.608  -3.519  0.00  0.00    +0.001 A 
ATOM     16  C   UNL     1       0.790   5.235  -2.493  0.00  0.00    +0.000 A 
ATOM     17  C   UNL     1       1.605   4.124  -2.630  0.00  0.00    +0.001 A 
ATOM     18  C   UNL     1       1.569   3.377  -3.789  0.00  0.00    +0.010 A 
ENDBRANCH   1  13
BRANCH   1  19
ATOM     19  N   UNL     1       0.449   1.612  -6.023  0.00  0.00    -0.313 N 
ATOM     20  H   UNL     1       1.105   0.996  -6.385  0.00  0.00    +0.152 HD
BRANCH  19  24
ATOM     21  C   UNL     1      -3.060   0.156  -4.309  0.00  0.00    +0.037 A 
ATOM     22  C   UNL     1      -2.051  -0.724  -4.679  0.00  0.00    +0.025 A 
ATOM     23  C   UNL     1      -0.889  -0.241  -5.247  0.00  0.00    +0.025 A 
ATOM     24  C   UNL     1      -0.728   1.124  -5.449  0.00  0.00    +0.031 A 
ATOM     25  C   UNL     1      -1.738   2.003  -5.079  0.00  0.00    +0.025 A 
ATOM     26  C   UNL     1      -2.902   1.520  -4.516  0.00  0.00    +0.025 A 
BRANCH  21  30
ATOM     27  C   UNL     1      -5.754  -0.641  -1.802  0.00  0.00    +0.109 C 
ATOM     28  C   UNL     1      -4.536  -0.037  -2.452  0.00  0.00    +0.217 C 
ATOM     29  O   UNL     1      -3.823   0.716  -1.823  0.00  0.00    -0.276 OA
ATOM     30  N   UNL     1      -4.239  -0.333  -3.733  0.00  0.00    -0.263 N 
BRANCH  30  31
ATOM     31  C   UNL     1      -5.149  -1.167  -4.522  0.00  0.00    +0.209 C 
BRANCH  31  32
ATOM     32  C   UNL     1      -6.121  -0.287  -5.263  0.00  0.00    +0.233 C 
ATOM     33  O   UNL     1      -6.060   0.918  -5.144  0.00  0.00    -0.274 OA
ATOM     34  N   UNL     1      -7.059  -0.839  -6.059  0.00  0.00    -0.306 N 
ATOM     35  C   UNL     1      -8.004   0.017  -6.779  0.00  0.00    +0.131 C 
ATOM     36  C   UNL     1      -7.132  -2.295  -6.202  0.00  0.00    +0.131 C 
ENDBRANCH  31  32
ENDBRANCH  30  31
ENDBRANCH  21  30
ENDBRANCH  19  24
ENDBRANCH   1  19
BRANCH   6  37
ATOM     37  C   UNL     1       2.333   8.762  -9.151  0.00  0.00    +0.339 C 
ATOM     38  O   UNL     1       2.396   8.916 -10.355  0.00  0.00    -0.245 OA
BRANCH  37  39
ATOM     39  O   UNL     1       2.603   9.792  -8.325  0.00  0.00    -0.464 OA
ATOM     40  C   UNL     1       2.957  11.036  -8.933  0.00  0.00    +0.280 C 
ENDBRANCH  37  39
ENDBRANCH   6  37
TORSDOF 8
