REMARK  Name = CHEMBL382729
REMARK  11 active torsions:
REMARK  status: ('A' for Active; 'I' for Inactive)
REMARK    1  A    between atoms: C_1  and  O_2
REMARK    2  A    between atoms: O_2  and  C_3
REMARK    3  A    between atoms: C_3  and  C_4
REMARK    4  A    between atoms: C_4  and  O_5
REMARK    5  A    between atoms: O_5  and  C_6
REMARK    6  A    between atoms: C_11  and  O_12
REMARK    7  A    between atoms: O_12  and  C_13
REMARK    8  A    between atoms: C_14  and  N_18
REMARK    9  A    between atoms: C_22  and  O_27
REMARK   10  A    between atoms: O_27  and  C_28
REMARK   11  A    between atoms: C_28  and  C_29
REMARK                            x       y       z     vdW  Elec       q    Type
REMARK                         _______ _______ _______ _____ _____    ______ ____
ROOT
ATOM      1  N   UNL     1       2.340  -8.466  -2.108  0.00  0.00    -0.228 NA
ATOM      2  C   UNL     1       3.621  -8.704  -2.074  0.00  0.00    +0.099 C 
ATOM      3  C   UNL     1       4.411  -9.050  -3.326  0.00  0.00    +0.142 C 
ATOM      4  C   UNL     1       5.627  -8.148  -3.344  0.00  0.00    +0.205 C 
ATOM      5  C   UNL     1       6.346  -7.878  -2.087  0.00  0.00    +0.186 C 
ATOM      6  C   UNL     1       5.767  -8.104  -0.880  0.00  0.00    +0.134 C 
ATOM      7  C   UNL     1       4.403  -8.647  -0.809  0.00  0.00    +0.222 C 
ATOM      8  O   UNL     1       3.934  -9.037   0.244  0.00  0.00    -0.284 OA
ATOM      9 CL   UNL     1       6.636  -7.746   0.580  0.00  0.00    -0.076 Cl
ATOM     10  O   UNL     1       6.006  -7.654  -4.384  0.00  0.00    -0.288 OA
ENDROOT
BRANCH   1  17
ATOM     11  C   UNL     1       1.524  -4.001   0.117  0.00  0.00    +0.164 A 
ATOM     12  C   UNL     1       0.916  -4.937   0.905  0.00  0.00    +0.078 A 
ATOM     13  C   UNL     1       0.971  -6.290   0.541  0.00  0.00    +0.080 A 
ATOM     14  C   UNL     1       1.659  -6.665  -0.643  0.00  0.00    +0.048 A 
ATOM     15  C   UNL     1       2.272  -5.688  -1.431  0.00  0.00    +0.063 A 
ATOM     16  C   UNL     1       2.198  -4.375  -1.056  0.00  0.00    +0.162 A 
ATOM     17  C   UNL     1       1.697  -8.042  -0.986  0.00  0.00    +0.164 A 
ATOM     18  N   UNL     1       1.086  -8.906  -0.178  0.00  0.00    -0.216 NA
ATOM     19  C   UNL     1       0.459  -8.504   0.913  0.00  0.00    +0.224 A 
ATOM     20  N   UNL     1       0.392  -7.245   1.278  0.00  0.00    -0.235 NA
BRANCH  16  21
ATOM     21  O   UNL     1       2.789  -3.422  -1.824  0.00  0.00    -0.491 OA
ATOM     22  C   UNL     1       3.460  -3.865  -3.005  0.00  0.00    +0.277 C 
ENDBRANCH  16  21
BRANCH  11  23
ATOM     23  O   UNL     1       1.470  -2.690   0.470  0.00  0.00    -0.486 OA
BRANCH  23  24
ATOM     24  C   UNL     1       0.769  -2.371   1.674  0.00  0.00    +0.257 C 
BRANCH  24  25
ATOM     25  C   UNL     1       0.815  -0.859   1.906  0.00  0.00    +0.200 C 
BRANCH  25  27
ATOM     26  C   UNL     1       0.079   1.228   0.986  0.00  0.00    +0.194 C 
ATOM     27  O   UNL     1       0.097  -0.196   0.864  0.00  0.00    -0.380 OA
ENDBRANCH  25  27
ENDBRANCH  24  25
ENDBRANCH  23  24
ENDBRANCH  11  23
ENDBRANCH   1  17
BRANCH   5  28
ATOM     28  O   UNL     1       7.610  -7.396  -2.136  0.00  0.00    -0.482 OA
BRANCH  28  29
ATOM     29  C   UNL     1       8.612  -8.255  -2.683  0.00  0.00    +0.264 C 
BRANCH  29  30
ATOM     30  C   UNL     1       9.920  -7.512  -2.768  0.00  0.00    -0.008 A 
ATOM     31  C   UNL     1      10.235  -6.794  -3.906  0.00  0.00    +0.007 A 
ATOM     32  C   UNL     1      11.435  -6.112  -3.985  0.00  0.00    +0.003 A 
ATOM     33  C   UNL     1      12.321  -6.147  -2.925  0.00  0.00    +0.038 A 
ATOM     34  C   UNL     1      12.007  -6.866  -1.784  0.00  0.00    +0.124 A 
ATOM     35  C   UNL     1      10.802  -7.544  -1.704  0.00  0.00    +0.045 A 
ATOM     36  F   UNL     1      12.873  -6.901  -0.748  0.00  0.00    -0.205 F 
ENDBRANCH  29  30
ENDBRANCH  28  29
ENDBRANCH   5  28
TORSDOF 9
