REMARK  Name = CHEMBL435702
REMARK  6 active torsions:
REMARK  status: ('A' for Active; 'I' for Inactive)
REMARK    1  A    between atoms: C_4  and  C_7
REMARK    2  A    between atoms: C_14  and  C_16
REMARK    3  A    between atoms: N_19  and  C_23
REMARK    4  A    between atoms: C_23  and  C_24
REMARK    5  A    between atoms: C_24  and  C_25
REMARK    6  A    between atoms: C_25  and  N_26
REMARK                            x       y       z     vdW  Elec       q    Type
REMARK                         _______ _______ _______ _____ _____    ______ ____
ROOT
ATOM      1  C   UNL     1       5.302  -6.038  -0.080  0.00  0.00    -0.011 A 
ATOM      2  C   UNL     1       6.688  -6.319  -0.090  0.00  0.00    +0.026 A 
ATOM      3  C   UNL     1       7.112  -7.600  -0.100  0.00  0.00    +0.089 A 
ATOM      4  N   UNL     1       6.225  -8.631  -0.101  0.00  0.00    -0.315 N 
ATOM      5  C   UNL     1       4.898  -8.408  -0.093  0.00  0.00    +0.252 A 
ATOM      6  O   UNL     1       4.122  -9.351  -0.095  0.00  0.00    -0.268 OA
ATOM      7  C   UNL     1       4.404  -7.096  -0.076  0.00  0.00    +0.078 A 
ENDROOT
BRANCH   1  15
ATOM      8  C   UNL     1       3.695  -0.683  -0.037  0.00  0.00    +0.073 A 
ATOM      9  C   UNL     1       4.950  -0.117  -0.041  0.00  0.00    +0.139 A 
ATOM     10  N   UNL     1       5.850  -1.095  -0.057  0.00  0.00    -0.235 NA
ATOM     11  C   UNL     1       5.229  -2.270  -0.064  0.00  0.00    +0.139 A 
ATOM     12  N   UNL     1       3.876  -2.046  -0.046  0.00  0.00    -0.299 N 
ATOM     13  C   UNL     1       2.994  -3.090  -0.043  0.00  0.00    +0.094 A 
ATOM     14  C   UNL     1       3.429  -4.364  -0.054  0.00  0.00    +0.027 A 
ATOM     15  C   UNL     1       4.818  -4.640  -0.069  0.00  0.00    -0.013 A 
ATOM     16  C   UNL     1       5.717  -3.588  -0.082  0.00  0.00    +0.055 A 
BRANCH   8  20
ATOM     17  C   UNL     1      -0.017   1.379   0.011  0.00  0.00    +0.000 A 
ATOM     18  C   UNL     1       0.043   0.080  -0.461  0.00  0.00    +0.001 A 
ATOM     19  C   UNL     1       1.245  -0.596  -0.480  0.00  0.00    +0.010 A 
ATOM     20  C   UNL     1       2.404   0.034  -0.021  0.00  0.00    +0.000 A 
ATOM     21  C   UNL     1       2.336   1.345   0.455  0.00  0.00    +0.010 A 
ATOM     22  C   UNL     1       1.127   2.010   0.468  0.00  0.00    +0.001 A 
ENDBRANCH   8  20
ENDBRANCH   1  15
BRANCH   4  23
ATOM     23  C   UNL     1       6.723 -10.008  -0.113  0.00  0.00    +0.123 C 
BRANCH  23  24
ATOM     24  C   UNL     1       6.905 -10.497   1.326  0.00  0.00    +0.003 C 
BRANCH  24  25
ATOM     25  C   UNL     1       7.425 -11.936   1.314  0.00  0.00    -0.077 C 
BRANCH  25  26
ATOM     26  N   UNL     1       7.599 -12.405   2.695  0.00  0.00    +0.380 N 
ATOM     27  C   UNL     1       8.644 -11.610   3.352  0.00  0.00    -0.079 C 
ATOM     28  C   UNL     1       8.773 -12.040   4.815  0.00  0.00    -0.019 C 
ATOM     29  C   UNL     1       9.145 -13.525   4.874  0.00  0.00    -0.004 C 
ATOM     30  C   UNL     1       8.086 -14.336   4.122  0.00  0.00    -0.019 C 
ATOM     31  C   UNL     1       7.983 -13.821   2.685  0.00  0.00    -0.079 C 
ATOM     32  H   UNL     1       6.731 -12.296   3.198  0.00  0.00    -0.082 HD
ENDBRANCH  25  26
ENDBRANCH  24  25
ENDBRANCH  23  24
ENDBRANCH   4  23
TORSDOF 6
