REMARK  Name = CHEMBL459478
REMARK  9 active torsions:
REMARK  status: ('A' for Active; 'I' for Inactive)
REMARK    1  A    between atoms: C_1  and  C_2
REMARK    2  A    between atoms: C_2  and  C_3
REMARK    3  A    between atoms: C_2  and  N_4
REMARK    4  A    between atoms: C_6  and  C_9
REMARK    5  A    between atoms: C_14  and  O_18
REMARK    6  A    between atoms: O_18  and  C_19
REMARK    7  A    between atoms: C_22  and  N_26
REMARK    8  A    between atoms: C_27  and  C_29
REMARK    9  A    between atoms: N_32  and  C_35
REMARK                            x       y       z     vdW  Elec       q    Type
REMARK                         _______ _______ _______ _____ _____    ______ ____
ROOT
ATOM      1  C   UNL     1       8.251  -5.839  -2.965  0.00  0.00    +0.164 A 
ATOM      2  C   UNL     1       8.642  -5.963  -4.290  0.00  0.00    +0.051 A 
ATOM      3  C   UNL     1       9.767  -6.698  -4.612  0.00  0.00    +0.027 A 
ATOM      4  C   UNL     1      10.506  -7.312  -3.611  0.00  0.00    +0.036 A 
ATOM      5  C   UNL     1      10.116  -7.188  -2.284  0.00  0.00    +0.065 A 
ATOM      6  C   UNL     1       8.994  -6.448  -1.961  0.00  0.00    +0.167 A 
ATOM      7  F   UNL     1       8.616  -6.322  -0.670  0.00  0.00    -0.202 F 
ENDROOT
BRANCH   4   8
ATOM      8  N   UNL     1      11.646  -8.058  -3.939  0.00  0.00    -0.285 N 
ATOM      9  C   UNL     1      12.638  -8.204  -3.038  0.00  0.00    +0.229 C 
ATOM     10  O   UNL     1      12.596  -7.601  -1.986  0.00  0.00    -0.275 OA
ATOM     11  H   UNL     1      11.721  -8.469  -4.814  0.00  0.00    +0.155 HD
BRANCH   9  12
ATOM     12  C   UNL     1      13.799  -9.116  -3.337  0.00  0.00    +0.163 C 
ATOM     13  C   UNL     1      14.849  -9.047  -2.204  0.00  0.00    +0.041 C 
ATOM     14  C   UNL     1      16.172  -9.166  -2.992  0.00  0.00    +0.115 C 
ATOM     15  N   UNL     1      15.871  -8.672  -4.340  0.00  0.00    -0.271 N 
ATOM     16  C   UNL     1      14.546  -8.639  -4.564  0.00  0.00    +0.232 C 
ATOM     17  O   UNL     1      14.024  -8.278  -5.598  0.00  0.00    -0.274 OA
BRANCH  15  18
ATOM     18  C   UNL     1      16.839  -8.284  -5.274  0.00  0.00    +0.036 A 
ATOM     19  C   UNL     1      16.453  -7.717  -6.481  0.00  0.00    +0.023 A 
ATOM     20  C   UNL     1      17.411  -7.336  -7.400  0.00  0.00    +0.002 A 
ATOM     21  C   UNL     1      18.752  -7.519  -7.120  0.00  0.00    +0.000 A 
ATOM     22  C   UNL     1      19.140  -8.084  -5.918  0.00  0.00    +0.002 A 
ATOM     23  C   UNL     1      18.187  -8.461  -4.992  0.00  0.00    +0.023 A 
ENDBRANCH  15  18
ENDBRANCH   9  12
ENDBRANCH   4   8
BRANCH   1  24
ATOM     24  O   UNL     1       7.144  -5.115  -2.648  0.00  0.00    -0.452 OA
BRANCH  24  30
ATOM     25  C   UNL     1       3.966  -1.557  -1.719  0.00  0.00    +0.042 A 
ATOM     26  C   UNL     1       5.155  -0.907  -1.630  0.00  0.00    +0.046 A 
ATOM     27  C   UNL     1       6.357  -1.608  -1.840  0.00  0.00    +0.082 A 
ATOM     28  C   UNL     1       6.212  -2.981  -2.136  0.00  0.00    +0.080 A 
ATOM     29  S   UNL     1       4.455  -3.230  -2.103  0.00  0.00    -0.081 S 
ATOM     30  C   UNL     1       7.303  -3.797  -2.365  0.00  0.00    +0.146 A 
ATOM     31  C   UNL     1       8.573  -3.225  -2.296  0.00  0.00    +0.067 A 
ATOM     32  C   UNL     1       8.672  -1.876  -2.003  0.00  0.00    +0.115 A 
ATOM     33  N   UNL     1       7.620  -1.125  -1.791  0.00  0.00    -0.254 NA
BRANCH  25  36
ATOM     34  N   UNL     1       0.428  -0.829  -1.392  0.00  0.00    -0.334 N 
ATOM     35  C   UNL     1       1.440  -1.715  -1.632  0.00  0.00    +0.116 A 
ATOM     36  C   UNL     1       2.603  -1.014  -1.537  0.00  0.00    +0.095 A 
ATOM     37  N   UNL     1       2.287   0.265  -1.245  0.00  0.00    -0.235 NA
ATOM     38  C   UNL     1       0.991   0.378  -1.163  0.00  0.00    +0.200 A 
BRANCH  34  40
ATOM     39  C   UNL     1      -1.593  -0.804  -0.014  0.00  0.00    +0.030 C 
ATOM     40  C   UNL     1      -1.006  -1.131  -1.388  0.00  0.00    +0.082 C 
ATOM     41  C   UNL     1      -1.707  -0.288  -2.455  0.00  0.00    +0.030 C 
ENDBRANCH  34  40
ENDBRANCH  25  36
ENDBRANCH  24  30
ENDBRANCH   1  24
TORSDOF 7
