REMARK  Name = CHEMBL203346
REMARK  5 active torsions:
REMARK  status: ('A' for Active; 'I' for Inactive)
REMARK    1  A    between atoms: C_1  and  C_2
REMARK    2  A    between atoms: C_2  and  C_3
REMARK    3  A    between atoms: C_2  and  C_4
REMARK    4  A    between atoms: C_7  and  N_10
REMARK    5  A    between atoms: C_18  and  C_21
REMARK                            x       y       z     vdW  Elec       q    Type
REMARK                         _______ _______ _______ _____ _____    ______ ____
ROOT
ATOM      1  N   UNL     1      -5.319  -1.967   0.042  0.00  0.00    -0.298 N 
ATOM      2  C   UNL     1      -5.801  -2.681  -1.042  0.00  0.00    +0.151 A 
ATOM      3  C   UNL     1      -7.158  -3.077  -1.086  0.00  0.00    +0.026 A 
ATOM      4  C   UNL     1      -8.069  -2.781  -0.068  0.00  0.00    +0.012 A 
ATOM      5  C   UNL     1      -9.363  -3.198  -0.185  0.00  0.00    +0.001 A 
ATOM      6  C   UNL     1      -9.789  -3.913  -1.301  0.00  0.00    +0.001 A 
ATOM      7  C   UNL     1      -8.925  -4.218  -2.312  0.00  0.00    +0.011 A 
ATOM      8  C   UNL     1      -7.594  -3.805  -2.223  0.00  0.00    +0.011 A 
ATOM      9  C   UNL     1      -6.603  -4.089  -3.259  0.00  0.00    +0.073 A 
ATOM     10  N   UNL     1      -5.365  -3.652  -3.078  0.00  0.00    -0.275 N 
ATOM     11  N   UNL     1      -5.000  -2.992  -2.044  0.00  0.00    -0.158 NA
ATOM     12  H   UNL     1      -5.889  -1.807   0.810  0.00  0.00    +0.154 HD
ATOM     13  H   UNL     1      -4.705  -3.839  -3.764  0.00  0.00    +0.189 HD
ENDROOT
BRANCH   9  14
ATOM     14  C   UNL     1      -6.971  -4.842  -4.475  0.00  0.00    +0.008 A 
ATOM     15  C   UNL     1      -6.421  -6.092  -4.722  0.00  0.00    +0.010 A 
ATOM     16  C   UNL     1      -6.764  -6.805  -5.864  0.00  0.00    +0.001 A 
ATOM     17  C   UNL     1      -7.647  -6.302  -6.774  0.00  0.00    +0.010 A 
ATOM     18  C   UNL     1      -8.228  -5.041  -6.564  0.00  0.00    +0.001 A 
ATOM     19  C   UNL     1      -7.894  -4.303  -5.401  0.00  0.00    -0.006 A 
ATOM     20  C   UNL     1      -8.493  -3.048  -5.213  0.00  0.00    +0.029 A 
ATOM     21  C   UNL     1      -9.373  -2.596  -6.152  0.00  0.00    +0.111 A 
ATOM     22  N   UNL     1      -9.673  -3.308  -7.228  0.00  0.00    -0.263 NA
ATOM     23  C   UNL     1      -9.142  -4.483  -7.473  0.00  0.00    +0.119 A 
ENDBRANCH   9  14
BRANCH   1  27
ATOM     24  C   UNL     1      -1.419  -0.506   0.004  0.00  0.00    -0.045 A 
ATOM     25  C   UNL     1      -2.136  -0.589  -1.175  0.00  0.00    +0.006 A 
ATOM     26  C   UNL     1      -3.430  -1.073  -1.166  0.00  0.00    +0.023 A 
ATOM     27  C   UNL     1      -4.010  -1.478   0.029  0.00  0.00    +0.032 A 
ATOM     28  C   UNL     1      -3.286  -1.394   1.212  0.00  0.00    +0.023 A 
ATOM     29  C   UNL     1      -1.992  -0.913   1.195  0.00  0.00    +0.006 A 
BRANCH  24  31
ATOM     30  C   UNL     1       0.857  -0.857  -0.915  0.00  0.00    +0.012 C 
ATOM     31  C   UNL     1      -0.008   0.022  -0.010  0.00  0.00    +0.013 C 
ATOM     32  C   UNL     1      -0.006   1.457  -0.540  0.00  0.00    +0.012 C 
ENDBRANCH  24  31
ENDBRANCH   1  27
TORSDOF 3
