REMARK  Name = CHEMBL233224
REMARK  6 active torsions:
REMARK  status: ('A' for Active; 'I' for Inactive)
REMARK    1  A    between atoms: C_1  and  N_2
REMARK    2  A    between atoms: N_5  and  C_8
REMARK    3  A    between atoms: C_8  and  C_9
REMARK    4  A    between atoms: C_9  and  C_10
REMARK    5  A    between atoms: C_13  and  N_16
REMARK    6  A    between atoms: C_21  and  C_23
REMARK                            x       y       z     vdW  Elec       q    Type
REMARK                         _______ _______ _______ _____ _____    ______ ____
ROOT
ATOM      1  N   UNL     1      -0.125 -10.145   2.797  0.00  0.00    -0.284 N 
ATOM      2  C   UNL     1      -1.321 -10.839   2.705  0.00  0.00    +0.220 A 
ATOM      3  N   UNL     1      -2.440 -10.168   2.476  0.00  0.00    -0.221 NA
ATOM      4  C   UNL     1      -3.604 -10.793   2.382  0.00  0.00    +0.136 A 
ATOM      5  C   UNL     1      -3.647 -12.168   2.525  0.00  0.00    +0.085 A 
ATOM      6  C   UNL     1      -2.448 -12.851   2.766  0.00  0.00    +0.096 A 
ATOM      7  N   UNL     1      -1.314 -12.155   2.844  0.00  0.00    -0.213 NA
ATOM      8 CL   UNL     1      -5.151 -13.027   2.409  0.00  0.00    -0.080 Cl
ATOM      9  H   UNL     1       0.712 -10.628   2.884  0.00  0.00    +0.155 HD
ENDROOT
BRANCH   6  10
ATOM     10  C   UNL     1      -2.440 -14.321   2.927  0.00  0.00    +0.027 A 
ATOM     11  C   UNL     1      -3.047 -15.229   2.121  0.00  0.00    +0.093 A 
ATOM     12  N   UNL     1      -2.818 -16.487   2.588  0.00  0.00    -0.360 N 
ATOM     13  H   UNL     1      -3.151 -17.300   2.178  0.00  0.00    +0.165 HD
ATOM     14  C   UNL     1      -2.044 -16.438   3.728  0.00  0.00    +0.047 A 
ATOM     15  C   UNL     1      -1.766 -15.086   3.990  0.00  0.00    +0.009 A 
ATOM     16  C   UNL     1      -0.989 -14.733   5.091  0.00  0.00    +0.010 A 
ATOM     17  C   UNL     1      -0.492 -15.717   5.918  0.00  0.00    +0.001 A 
ATOM     18  C   UNL     1      -0.762 -17.053   5.658  0.00  0.00    +0.002 A 
ATOM     19  C   UNL     1      -1.537 -17.416   4.578  0.00  0.00    +0.026 A 
ENDBRANCH   6  10
BRANCH   1  23
ATOM     20  C   UNL     1      -0.120  -5.981   2.698  0.00  0.00    -0.046 A 
ATOM     21  C   UNL     1      -1.181  -6.656   3.273  0.00  0.00    +0.005 A 
ATOM     22  C   UNL     1      -1.185  -8.037   3.308  0.00  0.00    +0.023 A 
ATOM     23  C   UNL     1      -0.123  -8.747   2.763  0.00  0.00    +0.034 A 
ATOM     24  C   UNL     1       0.941  -8.066   2.186  0.00  0.00    +0.023 A 
ATOM     25  C   UNL     1       0.937  -6.685   2.150  0.00  0.00    +0.005 A 
BRANCH  20  26
ATOM     26  C   UNL     1      -0.118  -4.474   2.662  0.00  0.00    +0.050 C 
BRANCH  26  27
ATOM     27  C   UNL     1      -0.796  -3.993   1.378  0.00  0.00    +0.089 C 
BRANCH  27  32
ATOM     28  C   UNL     1      -0.309   1.486   0.159  0.00  0.00    -0.096 C 
ATOM     29  N   UNL     1      -0.289   0.017   0.143  0.00  0.00    +0.379 N 
ATOM     30  C   UNL     1      -1.659  -0.493   0.287  0.00  0.00    -0.064 C 
ATOM     31  C   UNL     1      -1.640  -2.022   0.252  0.00  0.00    +0.066 C 
ATOM     32  N   UNL     1      -0.794  -2.525   1.343  0.00  0.00    -0.306 NA
ATOM     33  C   UNL     1       0.574  -2.002   1.226  0.00  0.00    +0.066 C 
ATOM     34  C   UNL     1       0.537  -0.473   1.254  0.00  0.00    -0.064 C 
ATOM     35  H   UNL     1       0.099  -0.304  -0.732  0.00  0.00    -0.082 HD
ENDBRANCH  27  32
ENDBRANCH  26  27
ENDBRANCH  20  26
ENDBRANCH   1  23
TORSDOF 5
