REMARK  Name = CHEMBL378895
REMARK  9 active torsions:
REMARK  status: ('A' for Active; 'I' for Inactive)
REMARK    1  A    between atoms: C_1  and  N_2
REMARK    2  A    between atoms: N_5  and  C_8
REMARK    3  A    between atoms: C_8  and  C_9
REMARK    4  A    between atoms: C_21  and  C_22
REMARK    5  A    between atoms: C_25  and  C_27
REMARK    6  A    between atoms: C_27  and  N_28
REMARK    7  A    between atoms: N_28  and  C_29
REMARK    8  A    between atoms: N_32  and  C_33
REMARK    9  A    between atoms: C_35  and  C_40
REMARK                            x       y       z     vdW  Elec       q    Type
REMARK                         _______ _______ _______ _____ _____    ______ ____
ROOT
ATOM      1  C   UNL     1      -0.252  -5.970   9.528  0.00  0.00    +0.038 A 
ATOM      2  C   UNL     1      -0.296  -7.049  10.372  0.00  0.00    +0.018 A 
ATOM      3  C   UNL     1      -1.363  -7.173  11.233  0.00  0.00    +0.013 A 
ATOM      4  C   UNL     1      -2.337  -6.226  11.221  0.00  0.00    +0.008 A 
ATOM      5  S   UNL     1      -1.751  -5.102   9.964  0.00  0.00    -0.090 S 
ENDROOT
BRANCH   1  18
ATOM      6  C   UNL     1       0.622  -3.656   2.767  0.00  0.00    -0.033 A 
ATOM      7  C   UNL     1       1.982  -3.719   3.008  0.00  0.00    +0.005 A 
ATOM      8  C   UNL     1       2.450  -4.132   4.238  0.00  0.00    +0.010 A 
ATOM      9  C   UNL     1       1.550  -4.487   5.244  0.00  0.00    +0.006 A 
ATOM     10  C   UNL     1       0.183  -4.419   4.992  0.00  0.00    -0.033 A 
ATOM     11  C   UNL     1      -0.277  -4.000   3.761  0.00  0.00    +0.009 A 
ATOM     12  C   UNL     1      -0.538  -4.855   6.244  0.00  0.00    +0.075 C 
ATOM     13  C   UNL     1       0.535  -5.184   7.252  0.00  0.00    +0.010 A 
ATOM     14  C   UNL     1       1.775  -4.957   6.635  0.00  0.00    +0.097 A 
ATOM     15  N   UNL     1       2.724  -5.242   7.507  0.00  0.00    -0.173 NA
ATOM     16  N   UNL     1       2.122  -5.657   8.701  0.00  0.00    -0.276 N 
ATOM     17  H   UNL     1       2.585  -5.926   9.510  0.00  0.00    +0.189 HD
ATOM     18  C   UNL     1       0.768  -5.615   8.526  0.00  0.00    +0.076 A 
BRANCH   6  19
ATOM     19  C   UNL     1       0.117  -3.205   1.420  0.00  0.00    +0.119 C 
BRANCH  19  24
ATOM     20  C   UNL     1       0.110   2.346   0.451  0.00  0.00    -0.096 C 
ATOM     21  N   UNL     1       0.316   0.892   0.399  0.00  0.00    +0.379 N 
ATOM     22  C   UNL     1      -0.984   0.217   0.295  0.00  0.00    -0.064 C 
ATOM     23  C   UNL     1      -0.769  -1.296   0.221  0.00  0.00    +0.066 C 
ATOM     24  N   UNL     1      -0.059  -1.746   1.427  0.00  0.00    -0.302 NA
ATOM     25  C   UNL     1       1.234  -1.060   1.557  0.00  0.00    +0.066 C 
ATOM     26  C   UNL     1       1.003   0.451   1.620  0.00  0.00    -0.064 C 
ATOM     27  H   UNL     1       0.880   0.661  -0.406  0.00  0.00    -0.082 HD
ENDBRANCH  19  24
ENDBRANCH   6  19
ENDBRANCH   1  18
BRANCH   4  28
ATOM     28  C   UNL     1      -3.588  -6.143  12.057  0.00  0.00    +0.151 C 
BRANCH  28  29
ATOM     29  N   UNL     1      -3.305  -5.396  13.285  0.00  0.00    -0.284 N 
ATOM     30  C   UNL     1      -3.483  -3.942  13.315  0.00  0.00    +0.134 C 
ATOM     31  C   UNL     1      -2.882  -6.046  14.387  0.00  0.00    +0.307 C 
ATOM     32  O   UNL     1      -2.735  -7.253  14.362  0.00  0.00    -0.252 OA
ATOM     33  N   UNL     1      -2.623  -5.359  15.517  0.00  0.00    -0.269 N 
ATOM     34  H   UNL     1      -2.666  -4.390  15.516  0.00  0.00    +0.156 HD
BRANCH  33  35
ATOM     35  C   UNL     1      -2.291  -6.043  16.692  0.00  0.00    +0.038 A 
ATOM     36  C   UNL     1      -1.406  -5.477  17.600  0.00  0.00    +0.036 A 
ATOM     37  C   UNL     1      -1.079  -6.154  18.759  0.00  0.00    +0.059 A 
ATOM     38  C   UNL     1      -1.633  -7.395  19.017  0.00  0.00    +0.050 A 
ATOM     39  C   UNL     1      -2.516  -7.963  18.113  0.00  0.00    +0.126 A 
ATOM     40  C   UNL     1      -2.850  -7.286  16.954  0.00  0.00    +0.061 A 
ATOM     41  F   UNL     1      -3.054  -9.175  18.367  0.00  0.00    -0.205 F 
BRANCH  37  42
ATOM     42  C   UNL     1      -0.119  -5.539  19.744  0.00  0.00    +0.418 C 
ATOM     43  F   UNL     1      -0.831  -4.770  20.672  0.00  0.00    -0.166 F 
ATOM     44  F   UNL     1       0.574  -6.553  20.414  0.00  0.00    -0.166 F 
ATOM     45  F   UNL     1       0.791  -4.724  19.062  0.00  0.00    -0.166 F 
ENDBRANCH  37  42
ENDBRANCH  33  35
ENDBRANCH  28  29
ENDBRANCH   4  28
TORSDOF 7
