REMARK  Name = CHEMBL82433
REMARK  6 active torsions:
REMARK  status: ('A' for Active; 'I' for Inactive)
REMARK    1  A    between atoms: C_4  and  N_7
REMARK    2  A    between atoms: C_14  and  C_16
REMARK    3  A    between atoms: N_19  and  C_23
REMARK    4  A    between atoms: C_23  and  C_24
REMARK    5  A    between atoms: C_24  and  C_25
REMARK    6  A    between atoms: C_25  and  N_26
REMARK                            x       y       z     vdW  Elec       q    Type
REMARK                         _______ _______ _______ _____ _____    ______ ____
ROOT
ATOM      1  C   UNL     1       6.008  -4.812   2.865  0.00  0.00    -0.011 A 
ATOM      2  C   UNL     1       7.170  -4.548   3.626  0.00  0.00    +0.026 A 
ATOM      3  C   UNL     1       7.787  -5.555   4.279  0.00  0.00    +0.089 A 
ATOM      4  N   UNL     1       7.308  -6.825   4.217  0.00  0.00    -0.315 N 
ATOM      5  C   UNL     1       6.206  -7.120   3.504  0.00  0.00    +0.252 A 
ATOM      6  O   UNL     1       5.796  -8.270   3.464  0.00  0.00    -0.268 OA
ATOM      7  C   UNL     1       5.523  -6.111   2.812  0.00  0.00    +0.078 A 
ENDROOT
BRANCH   1  15
ATOM      8  N   UNL     1       3.623  -0.652  -0.037  0.00  0.00    -0.299 N 
ATOM      9  C   UNL     1       4.666  -0.420  -0.884  0.00  0.00    +0.205 A 
ATOM     10  N   UNL     1       5.645  -1.236  -0.620  0.00  0.00    -0.235 NA
ATOM     11  C   UNL     1       5.299  -2.046   0.414  0.00  0.00    +0.090 A 
ATOM     12  C   UNL     1       3.998  -1.680   0.806  0.00  0.00    +0.073 A 
ATOM     13  C   UNL     1       3.375  -2.339   1.857  0.00  0.00    +0.029 A 
ATOM     14  C   UNL     1       4.023  -3.345   2.516  0.00  0.00    +0.010 A 
ATOM     15  C   UNL     1       5.317  -3.720   2.141  0.00  0.00    -0.016 A 
ATOM     16  C   UNL     1       5.955  -3.076   1.087  0.00  0.00    +0.038 A 
BRANCH   8  20
ATOM     17  C   UNL     1      -0.017   1.379   0.010  0.00  0.00    +0.000 A 
ATOM     18  C   UNL     1       1.170   2.089   0.002  0.00  0.00    +0.002 A 
ATOM     19  C   UNL     1       2.377   1.419  -0.013  0.00  0.00    +0.026 A 
ATOM     20  C   UNL     1       2.400   0.031  -0.021  0.00  0.00    +0.048 A 
ATOM     21  C   UNL     1       1.207  -0.680  -0.013  0.00  0.00    +0.026 A 
ATOM     22  C   UNL     1       0.002  -0.004   0.002  0.00  0.00    +0.002 A 
ENDBRANCH   8  20
ENDBRANCH   1  15
BRANCH   4  23
ATOM     23  C   UNL     1       8.005  -7.893   4.939  0.00  0.00    +0.123 C 
BRANCH  23  24
ATOM     24  C   UNL     1       7.429  -8.013   6.352  0.00  0.00    +0.003 C 
BRANCH  24  25
ATOM     25  C   UNL     1       8.157  -9.128   7.106  0.00  0.00    -0.077 C 
BRANCH  25  26
ATOM     26  N   UNL     1       7.604  -9.243   8.462  0.00  0.00    +0.380 N 
ATOM     27  C   UNL     1       7.883  -8.011   9.209  0.00  0.00    -0.079 C 
ATOM     28  C   UNL     1       7.240  -8.093  10.595  0.00  0.00    -0.019 C 
ATOM     29  C   UNL     1       7.820  -9.293  11.351  0.00  0.00    -0.004 C 
ATOM     30  C   UNL     1       7.588 -10.563  10.527  0.00  0.00    -0.019 C 
ATOM     31  C   UNL     1       8.219 -10.389   9.143  0.00  0.00    -0.079 C 
ATOM     32  H   UNL     1       6.606  -9.382   8.407  0.00  0.00    -0.082 HD
ENDBRANCH  25  26
ENDBRANCH  24  25
ENDBRANCH  23  24
ENDBRANCH   4  23
TORSDOF 6
