REMARK  Name = CHEMBL244289
REMARK  8 active torsions:
REMARK  status: ('A' for Active; 'I' for Inactive)
REMARK    1  A    between atoms: C_1  and  O_2
REMARK    2  A    between atoms: O_2  and  C_3
REMARK    3  A    between atoms: C_3  and  N_5
REMARK    4  A    between atoms: C_11  and  O_16
REMARK    5  A    between atoms: O_16  and  C_17
REMARK    6  A    between atoms: C_21  and  N_23
REMARK    7  A    between atoms: N_26  and  C_27
REMARK    8  A    between atoms: C_29  and  C_34
REMARK                            x       y       z     vdW  Elec       q    Type
REMARK                         _______ _______ _______ _____ _____    ______ ____
ROOT
ATOM      1  C   UNL     1       4.844  -6.559   7.354  0.00  0.00    +0.130 A 
ATOM      2  C   UNL     1       5.263  -5.350   7.893  0.00  0.00    +0.046 A 
ATOM      3  C   UNL     1       6.044  -5.334   9.033  0.00  0.00    +0.005 A 
ATOM      4  C   UNL     1       6.409  -6.521   9.640  0.00  0.00    +0.023 A 
ATOM      5  C   UNL     1       5.993  -7.733   9.105  0.00  0.00    +0.038 A 
ATOM      6  C   UNL     1       5.204  -7.751   7.963  0.00  0.00    +0.069 A 
ENDROOT
BRANCH   5   7
ATOM      7  N   UNL     1       6.364  -8.934   9.719  0.00  0.00    -0.269 N 
ATOM      8  C   UNL     1       6.474  -8.999  11.061  0.00  0.00    +0.308 C 
ATOM      9  O   UNL     1       6.155  -8.045  11.744  0.00  0.00    -0.252 OA
ATOM     10  N   UNL     1       6.936 -10.122  11.645  0.00  0.00    -0.267 N 
ATOM     11  H   UNL     1       6.542  -9.720   9.179  0.00  0.00    +0.156 HD
ATOM     12  H   UNL     1       7.244 -10.862  11.099  0.00  0.00    +0.156 HD
BRANCH  10  13
ATOM     13  C   UNL     1       6.973 -10.220  13.042  0.00  0.00    +0.071 A 
ATOM     14  C   UNL     1       7.055  -9.073  13.818  0.00  0.00    +0.038 A 
ATOM     15  C   UNL     1       7.091  -9.173  15.196  0.00  0.00    +0.057 A 
ATOM     16  C   UNL     1       7.046 -10.415  15.802  0.00  0.00    +0.015 A 
ATOM     17  C   UNL     1       6.964 -11.561  15.034  0.00  0.00    +0.041 A 
ATOM     18  C   UNL     1       6.921 -11.468  13.654  0.00  0.00    +0.145 A 
ATOM     19  F   UNL     1       6.835 -12.587  12.903  0.00  0.00    -0.204 F 
BRANCH  15  20
ATOM     20  C   UNL     1       7.181  -7.927  16.038  0.00  0.00    +0.417 C 
ATOM     21  F   UNL     1       5.891  -7.473  16.338  0.00  0.00    -0.166 F 
ATOM     22  F   UNL     1       7.862  -8.215  17.226  0.00  0.00    -0.166 F 
ATOM     23  F   UNL     1       7.871  -6.935  15.333  0.00  0.00    -0.166 F 
ENDBRANCH  15  20
ENDBRANCH  10  13
ENDBRANCH   5   7
BRANCH   1  24
ATOM     24  O   UNL     1       4.078  -6.573   6.232  0.00  0.00    -0.456 OA
BRANCH  24  31
ATOM     25  N   UNL     1       1.004 -12.950   5.184  0.00  0.00    -0.109 NA
ATOM     26  C   UNL     1       1.705 -11.823   5.166  0.00  0.00    +0.201 A 
ATOM     27  N   UNL     1       1.605 -10.819   6.078  0.00  0.00    -0.326 N 
ATOM     28  H   UNL     1       1.014 -10.806   6.847  0.00  0.00    +0.169 HD
ATOM     29  C   UNL     1       2.499  -9.813   5.720  0.00  0.00    +0.069 A 
ATOM     30  C   UNL     1       2.812  -8.584   6.280  0.00  0.00    +0.074 A 
ATOM     31  C   UNL     1       3.770  -7.779   5.685  0.00  0.00    +0.131 A 
ATOM     32  C   UNL     1       4.415  -8.200   4.529  0.00  0.00    +0.048 A 
ATOM     33  C   UNL     1       4.107  -9.424   3.968  0.00  0.00    +0.031 A 
ATOM     34  C   UNL     1       3.149 -10.235   4.559  0.00  0.00    +0.066 A 
ATOM     35  N   UNL     1       2.642 -11.492   4.237  0.00  0.00    -0.326 N 
ATOM     36  H   UNL     1       2.908 -12.037   3.480  0.00  0.00    +0.169 HD
BRANCH  25  37
ATOM     37  C   UNL     1       1.266 -13.914   4.296  0.00  0.00    +0.427 C 
ATOM     38  O   UNL     1       2.083 -13.724   3.414  0.00  0.00    -0.224 OA
BRANCH  37  40
ATOM     39  C   UNL     1       0.954 -16.084   3.396  0.00  0.00    +0.282 C 
ATOM     40  O   UNL     1       0.625 -15.100   4.378  0.00  0.00    -0.452 OA
ENDBRANCH  37  40
ENDBRANCH  25  37
ENDBRANCH  24  31
ENDBRANCH   1  24
TORSDOF 7
