REMARK  Name = CHEMBL204700
REMARK  6 active torsions:
REMARK  status: ('A' for Active; 'I' for Inactive)
REMARK    1  A    between atoms: C_6  and  N_7
REMARK    2  A    between atoms: N_10  and  C_13
REMARK    3  A    between atoms: C_13  and  C_14
REMARK    4  A    between atoms: C_14  and  C_15
REMARK    5  A    between atoms: C_15  and  N_16
REMARK    6  A    between atoms: C_26  and  C_28
REMARK                            x       y       z     vdW  Elec       q    Type
REMARK                         _______ _______ _______ _____ _____    ______ ____
ROOT
ATOM      1  N   UNL     1      -1.141  -0.790   0.012  0.00  0.00    -0.313 N 
ATOM      2  C   UNL     1      -1.117  -2.245   0.226  0.00  0.00    +0.122 C 
ATOM      3  C   UNL     1      -2.107  -2.589   1.344  0.00  0.00    +0.103 C 
ATOM      4  N   UNL     1      -3.426  -2.031   1.014  0.00  0.00    -0.299 NA
ATOM      5  C   UNL     1      -3.382  -0.565   0.945  0.00  0.00    +0.103 C 
ATOM      6  C   UNL     1      -2.445  -0.137  -0.183  0.00  0.00    +0.122 C 
ENDROOT
BRANCH   1  12
ATOM      7  C   UNL     1      -0.007   1.339   0.004  0.00  0.00    +0.087 A 
ATOM      8  C   UNL     1       1.199   2.032  -0.008  0.00  0.00    +0.129 A 
ATOM      9  N   UNL     1       2.340   1.345  -0.024  0.00  0.00    -0.220 NA
ATOM     10  C   UNL     1       2.336   0.027  -0.028  0.00  0.00    +0.225 A 
ATOM     11  N   UNL     1       1.215  -0.665  -0.017  0.00  0.00    -0.221 NA
ATOM     12  C   UNL     1       0.033  -0.053  -0.000  0.00  0.00    +0.126 A 
ATOM     13  N   UNL     1       1.214   3.421  -0.005  0.00  0.00    -0.279 N 
ATOM     14  C   UNL     1       2.414   4.099   0.091  0.00  0.00    +0.165 A 
ATOM     15  N   UNL     1       3.636   3.600   0.093  0.00  0.00    -0.232 NA
ATOM     16  C   UNL     1       4.690   4.373   0.191  0.00  0.00    +0.139 A 
ATOM     17  C   UNL     1       4.448   5.735   0.292  0.00  0.00    +0.110 A 
ATOM     18  S   UNL     1       2.664   5.758   0.225  0.00  0.00    -0.042 S 
ATOM     19  H   UNL     1       0.381   3.914  -0.070  0.00  0.00    +0.155 HD
BRANCH  17  20
ATOM     20  C   UNL     1       5.373   6.822   0.411  0.00  0.00    +0.108 C 
ATOM     21  N   UNL     1       6.107   7.684   0.505  0.00  0.00    -0.190 NA
ENDBRANCH  17  20
ENDBRANCH   1  12
BRANCH   4  22
ATOM     22  C   UNL     1      -4.443  -2.483   1.973  0.00  0.00    +0.082 C 
BRANCH  22  23
ATOM     23  C   UNL     1      -5.832  -2.094   1.464  0.00  0.00    -0.003 C 
BRANCH  23  24
ATOM     24  C   UNL     1      -6.892  -2.564   2.463  0.00  0.00    -0.077 C 
BRANCH  24  25
ATOM     25  N   UNL     1      -8.226  -2.191   1.974  0.00  0.00    +0.383 N 
ATOM     26  C   UNL     1      -8.344  -0.726   1.944  0.00  0.00    -0.050 C 
ATOM     27  C   UNL     1      -9.735  -0.339   1.435  0.00  0.00    +0.141 C 
ATOM     28  O   UNL     1     -10.727  -0.930   2.279  0.00  0.00    -0.383 OA
ATOM     29  C   UNL     1     -10.638  -2.355   2.359  0.00  0.00    +0.141 C 
ATOM     30  C   UNL     1      -9.249  -2.746   2.870  0.00  0.00    -0.050 C 
ATOM     31  H   UNL     1      -8.358  -2.558   1.044  0.00  0.00    -0.082 HD
ENDBRANCH  24  25
ENDBRANCH  23  24
ENDBRANCH  22  23
ENDBRANCH   4  22
TORSDOF 6
