REMARK  Name = CHEMBL231570
REMARK  7 active torsions:
REMARK  status: ('A' for Active; 'I' for Inactive)
REMARK    1  A    between atoms: C_1  and  N_2
REMARK    2  A    between atoms: C_3  and  C_5
REMARK    3  A    between atoms: C_7  and  O_11
REMARK    4  A    between atoms: O_11  and  C_12
REMARK    5  A    between atoms: N_21  and  C_22
REMARK    6  A    between atoms: C_26  and  C_28
REMARK    7  A    between atoms: C_28  and  N_29
REMARK                            x       y       z     vdW  Elec       q    Type
REMARK                         _______ _______ _______ _____ _____    ______ ____
ROOT
ATOM      1  C   UNL     1       1.926  -6.270  -3.034  0.00  0.00    +0.131 A 
ATOM      2  C   UNL     1       1.351  -6.992  -1.993  0.00  0.00    +0.050 A 
ATOM      3  C   UNL     1       1.405  -8.371  -1.986  0.00  0.00    +0.052 A 
ATOM      4  C   UNL     1       2.036  -9.044  -3.020  0.00  0.00    +0.157 A 
ATOM      5  C   UNL     1       2.618  -8.322  -4.072  0.00  0.00    +0.115 A 
ATOM      6  C   UNL     1       2.554  -6.928  -4.075  0.00  0.00    +0.078 A 
ATOM      7  N   UNL     1       3.154  -9.239  -4.925  0.00  0.00    -0.195 NA
ATOM      8  C   UNL     1       2.928 -10.437  -4.449  0.00  0.00    +0.293 A 
ATOM      9  O   UNL     1       2.250 -10.353  -3.290  0.00  0.00    -0.424 OA
ATOM     10  N   UNL     1       3.326 -11.612  -5.047  0.00  0.00    -0.269 N 
ATOM     11  H   UNL     1       3.894 -11.588  -5.833  0.00  0.00    +0.157 HD
ENDROOT
BRANCH  10  12
ATOM     12  C   UNL     1       2.912 -12.840  -4.521  0.00  0.00    +0.035 A 
ATOM     13  C   UNL     1       1.728 -12.925  -3.799  0.00  0.00    +0.025 A 
ATOM     14  C   UNL     1       1.322 -14.138  -3.280  0.00  0.00    +0.022 A 
ATOM     15  C   UNL     1       2.094 -15.270  -3.479  0.00  0.00    +0.045 A 
ATOM     16  C   UNL     1       3.273 -15.189  -4.197  0.00  0.00    -0.013 A 
ATOM     17  C   UNL     1       3.681 -13.979  -4.723  0.00  0.00    +0.029 A 
ATOM     18 CL   UNL     1       1.581 -16.794  -2.824  0.00  0.00    -0.083 Cl
BRANCH  16  19
ATOM     19  C   UNL     1       4.111 -16.423  -4.410  0.00  0.00    +0.121 C 
BRANCH  19  20
ATOM     20  N   UNL     1       4.815 -16.759  -3.165  0.00  0.00    -0.294 NA
ATOM     21  C   UNL     1       5.805 -15.726  -2.825  0.00  0.00    +0.113 C 
ATOM     22  C   UNL     1       6.471 -16.084  -1.494  0.00  0.00    +0.175 C 
ATOM     23  O   UNL     1       7.057 -17.385  -1.594  0.00  0.00    -0.377 OA
ATOM     24  C   UNL     1       6.121 -18.415  -1.923  0.00  0.00    +0.175 C 
ATOM     25  C   UNL     1       5.452 -18.080  -3.259  0.00  0.00    +0.113 C 
ENDBRANCH  19  20
ENDBRANCH  16  19
ENDBRANCH  10  12
BRANCH   1  26
ATOM     26  O   UNL     1       1.866  -4.912  -3.029  0.00  0.00    -0.456 OA
BRANCH  26  29
ATOM     27  C   UNL     1       4.356  -4.198  -0.461  0.00  0.00    +0.129 A 
ATOM     28  C   UNL     1       3.517  -4.925  -1.299  0.00  0.00    +0.079 A 
ATOM     29  C   UNL     1       2.699  -4.240  -2.194  0.00  0.00    +0.132 A 
ATOM     30  C   UNL     1       2.757  -2.849  -2.212  0.00  0.00    +0.066 A 
ATOM     31  C   UNL     1       3.617  -2.197  -1.347  0.00  0.00    +0.115 A 
ATOM     32  N   UNL     1       4.374  -2.871  -0.508  0.00  0.00    -0.250 NA
BRANCH  27  35
ATOM     33  C   UNL     1       6.911  -4.917   2.264  0.00  0.00    +0.128 C 
ATOM     34  N   UNL     1       6.044  -4.213   1.317  0.00  0.00    -0.313 N 
ATOM     35  C   UNL     1       5.233  -4.911   0.498  0.00  0.00    +0.262 C 
ATOM     36  O   UNL     1       5.220  -6.125   0.546  0.00  0.00    -0.269 OA
ATOM     37  H   UNL     1       6.054  -3.243   1.278  0.00  0.00    +0.149 HD
ENDBRANCH  27  35
ENDBRANCH  26  29
ENDBRANCH   1  26
TORSDOF 6
