REMARK  Name = CHEMBL200425
REMARK  11 active torsions:
REMARK  status: ('A' for Active; 'I' for Inactive)
REMARK    1  A    between atoms: C_1  and  N_2
REMARK    2  A    between atoms: C_5  and  C_8
REMARK    3  A    between atoms: C_8  and  O_9
REMARK    4  A    between atoms: O_9  and  C_10
REMARK    5  A    between atoms: C_15  and  O_16
REMARK    6  A    between atoms: O_16  and  C_17
REMARK    7  A    between atoms: C_18  and  N_22
REMARK    8  A    between atoms: C_26  and  O_30
REMARK    9  A    between atoms: O_30  and  C_31
REMARK   10  A    between atoms: C_31  and  C_32
REMARK   11  A    between atoms: C_31  and  C_34
REMARK                            x       y       z     vdW  Elec       q    Type
REMARK                         _______ _______ _______ _____ _____    ______ ____
ROOT
ATOM      1  C   UNL     1       0.314  -6.037   2.215  0.00  0.00    +0.164 A 
ATOM      2  C   UNL     1      -0.133  -6.791   1.167  0.00  0.00    +0.078 A 
ATOM      3  C   UNL     1      -0.004  -8.186   1.212  0.00  0.00    +0.080 A 
ATOM      4  C   UNL     1       0.591  -8.795   2.348  0.00  0.00    +0.048 A 
ATOM      5  C   UNL     1       1.040  -8.001   3.407  0.00  0.00    +0.063 A 
ATOM      6  C   UNL     1       0.907  -6.642   3.334  0.00  0.00    +0.162 A 
ATOM      7  C   UNL     1       0.708 -10.209   2.365  0.00  0.00    +0.164 A 
ATOM      8  N   UNL     1       0.254 -10.888   1.314  0.00  0.00    -0.216 NA
ATOM      9  C   UNL     1      -0.292 -10.273   0.280  0.00  0.00    +0.224 A 
ATOM     10  N   UNL     1      -0.427  -8.968   0.211  0.00  0.00    -0.235 NA
ENDROOT
BRANCH   7  11
ATOM     11  N   UNL     1       1.269 -10.852   3.425  0.00  0.00    -0.228 NA
ATOM     12  C   UNL     1       0.542 -11.154   4.463  0.00  0.00    +0.098 C 
ATOM     13  C   UNL     1      -0.960 -10.919   4.493  0.00  0.00    +0.142 C 
ATOM     14  C   UNL     1      -1.598 -12.208   4.965  0.00  0.00    +0.203 C 
ATOM     15  C   UNL     1      -0.961 -12.976   6.053  0.00  0.00    +0.167 C 
ATOM     16  C   UNL     1       0.335 -12.772   6.394  0.00  0.00    +0.102 C 
ATOM     17  C   UNL     1       1.129 -11.757   5.692  0.00  0.00    +0.204 C 
ATOM     18  O   UNL     1       2.225 -11.421   6.101  0.00  0.00    -0.286 OA
ATOM     19  O   UNL     1      -2.620 -12.604   4.457  0.00  0.00    -0.288 OA
BRANCH  15  20
ATOM     20  O   UNL     1      -1.686 -13.902   6.723  0.00  0.00    -0.480 OA
BRANCH  20  21
ATOM     21  C   UNL     1      -1.062 -14.523   7.849  0.00  0.00    +0.235 C 
BRANCH  21  22
ATOM     22  C   UNL     1      -2.116 -14.814   8.919  0.00  0.00    +0.260 C 
ATOM     23  F   UNL     1      -2.635 -13.608   9.402  0.00  0.00    -0.245 F 
ENDBRANCH  21  22
BRANCH  21  24
ATOM     24  C   UNL     1      -0.406 -15.834   7.409  0.00  0.00    +0.260 C 
ATOM     25  F   UNL     1       0.634 -15.557   6.516  0.00  0.00    -0.245 F 
ENDBRANCH  21  24
ENDBRANCH  20  21
ENDBRANCH  15  20
ENDBRANCH   7  11
BRANCH   6  26
ATOM     26  O   UNL     1       1.349  -5.868   4.360  0.00  0.00    -0.491 OA
ATOM     27  C   UNL     1       1.944  -6.541   5.472  0.00  0.00    +0.277 C 
ENDBRANCH   6  26
BRANCH   1  28
ATOM     28  O   UNL     1       0.189  -4.686   2.170  0.00  0.00    -0.488 OA
BRANCH  28  29
ATOM     29  C   UNL     1      -0.422  -4.129   1.005  0.00  0.00    +0.232 C 
BRANCH  29  34
ATOM     30  C   UNL     1       0.176   1.458   0.030  0.00  0.00    -0.096 C 
ATOM     31  N   UNL     1       0.166  -0.011   0.018  0.00  0.00    +0.378 N 
ATOM     32  C   UNL     1      -1.222  -0.489   0.042  0.00  0.00    -0.079 C 
ATOM     33  C   UNL     1      -1.241  -2.016  -0.053  0.00  0.00    -0.012 C 
ATOM     34  C   UNL     1      -0.475  -2.605   1.135  0.00  0.00    +0.023 C 
ATOM     35  C   UNL     1       0.949  -2.042   1.143  0.00  0.00    -0.012 C 
ATOM     36  C   UNL     1       0.887  -0.514   1.193  0.00  0.00    -0.079 C 
ATOM     37  H   UNL     1       0.619  -0.342  -0.821  0.00  0.00    -0.082 HD
ENDBRANCH  29  34
ENDBRANCH  28  29
ENDBRANCH   1  28
TORSDOF 9
