REMARK  Name = CHEMBL197339
REMARK  12 active torsions:
REMARK  status: ('A' for Active; 'I' for Inactive)
REMARK    1  A    between atoms: C_1  and  C_2
REMARK    2  A    between atoms: C_2  and  C_3
REMARK    3  A    between atoms: C_2  and  O_4
REMARK    4  A    between atoms: O_4  and  C_5
REMARK    5  A    between atoms: C_7  and  O_25
REMARK    6  A    between atoms: N_15  and  C_16
REMARK    7  A    between atoms: C_18  and  O_23
REMARK    8  A    between atoms: O_23  and  C_24
REMARK    9  A    between atoms: O_25  and  C_26
REMARK   10  A    between atoms: C_26  and  C_27
REMARK   11  A    between atoms: C_27  and  C_28
REMARK   12  A    between atoms: C_28  and  N_29
REMARK                            x       y       z     vdW  Elec       q    Type
REMARK                         _______ _______ _______ _____ _____    ______ ____
ROOT
ATOM      1  C   UNL     1      -1.565  -1.563  -0.737  0.00  0.00    +0.137 A 
ATOM      2  C   UNL     1      -0.510  -2.223  -1.331  0.00  0.00    +0.092 A 
ATOM      3  C   UNL     1      -0.628  -3.563  -1.699  0.00  0.00    +0.126 A 
ATOM      4  C   UNL     1      -1.800  -4.258  -1.478  0.00  0.00    +0.074 A 
ATOM      5  C   UNL     1      -2.886  -3.612  -0.878  0.00  0.00    +0.083 A 
ATOM      6  C   UNL     1      -2.766  -2.252  -0.498  0.00  0.00    +0.082 A 
ATOM      7  C   UNL     1      -3.877  -1.628   0.111  0.00  0.00    +0.137 A 
ATOM      8  N   UNL     1      -4.975  -2.349   0.302  0.00  0.00    -0.220 NA
ATOM      9  C   UNL     1      -5.041  -3.619  -0.064  0.00  0.00    +0.223 A 
ATOM     10  N   UNL     1      -4.046  -4.246  -0.643  0.00  0.00    -0.235 NA
ATOM     11  N   UNL     1      -3.822  -0.304   0.499  0.00  0.00    -0.297 N 
ATOM     12  H   UNL     1      -3.029   0.223   0.314  0.00  0.00    +0.154 HD
ENDROOT
BRANCH  11  13
ATOM     13  C   UNL     1      -4.907   0.276   1.155  0.00  0.00    +0.058 A 
ATOM     14  C   UNL     1      -6.189  -0.248   1.014  0.00  0.00    +0.092 A 
ATOM     15  C   UNL     1      -7.240   0.358   1.685  0.00  0.00    +0.216 A 
ATOM     16  N   UNL     1      -7.034   1.419   2.448  0.00  0.00    -0.220 NA
ATOM     17  C   UNL     1      -5.831   1.942   2.605  0.00  0.00    +0.136 A 
ATOM     18  C   UNL     1      -4.734   1.393   1.976  0.00  0.00    +0.080 A 
ATOM     19 CL   UNL     1      -3.157   2.085   2.196  0.00  0.00    -0.080 Cl
BRANCH  15  20
ATOM     20  O   UNL     1      -8.495  -0.142   1.556  0.00  0.00    -0.480 OA
ATOM     21  C   UNL     1      -9.537   0.525   2.271  0.00  0.00    +0.279 C 
ENDBRANCH  15  20
ENDBRANCH  11  13
BRANCH   1  22
ATOM     22  O   UNL     1      -1.442  -0.259  -0.381  0.00  0.00    -0.488 OA
BRANCH  22  24
ATOM     23  C   UNL     1      -0.497   1.917  -0.844  0.00  0.00    +0.051 C 
ATOM     24  C   UNL     1      -0.241   0.410  -0.773  0.00  0.00    +0.167 C 
ATOM     25  C   UNL     1       0.858   0.127   0.252  0.00  0.00    +0.051 C 
ENDBRANCH  22  24
ENDBRANCH   1  22
BRANCH   3  26
ATOM     26  O   UNL     1       0.424  -4.193  -2.283  0.00  0.00    -0.492 OA
BRANCH  26  27
ATOM     27  C   UNL     1       0.243  -5.565  -2.639  0.00  0.00    +0.227 C 
BRANCH  27  28
ATOM     28  C   UNL     1       1.525  -6.100  -3.279  0.00  0.00    +0.022 C 
BRANCH  28  29
ATOM     29  C   UNL     1       1.331  -7.569  -3.659  0.00  0.00    -0.075 C 
BRANCH  29  30
ATOM     30  N   UNL     1       2.563  -8.082  -4.274  0.00  0.00    +0.383 N 
ATOM     31  C   UNL     1       2.806  -7.382  -5.543  0.00  0.00    -0.050 C 
ATOM     32  C   UNL     1       4.089  -7.918  -6.181  0.00  0.00    +0.141 C 
ATOM     33  O   UNL     1       3.965  -9.330  -6.376  0.00  0.00    -0.383 OA
ATOM     34  C   UNL     1       3.704 -10.055  -5.170  0.00  0.00    +0.141 C 
ATOM     35  C   UNL     1       2.420  -9.522  -4.530  0.00  0.00    -0.050 C 
ATOM     36  H   UNL     1       3.341  -7.927  -3.650  0.00  0.00    -0.082 HD
ENDBRANCH  29  30
ENDBRANCH  28  29
ENDBRANCH  27  28
ENDBRANCH  26  27
ENDBRANCH   3  26
TORSDOF 9
