REMARK  Name = CHEMBL495961
REMARK  5 active torsions:
REMARK  status: ('A' for Active; 'I' for Inactive)
REMARK    1  A    between atoms: C_1  and  N_2
REMARK    2  A    between atoms: N_5  and  C_8
REMARK    3  A    between atoms: C_8  and  C_9
REMARK    4  A    between atoms: C_16  and  C_19
REMARK    5  A    between atoms: C_20  and  N_31
REMARK                            x       y       z     vdW  Elec       q    Type
REMARK                         _______ _______ _______ _____ _____    ______ ____
ROOT
ATOM      1  C   UNL     1       0.035  -4.556   2.291  0.00  0.00    -0.062 A 
ATOM      2  C   UNL     1       1.409  -4.710   2.405  0.00  0.00    +0.004 A 
ATOM      3  C   UNL     1       1.964  -5.188   3.574  0.00  0.00    +0.028 A 
ATOM      4  C   UNL     1       1.144  -5.518   4.644  0.00  0.00    +0.066 A 
ATOM      5  C   UNL     1      -0.249  -5.364   4.533  0.00  0.00    +0.090 A 
ATOM      6  C   UNL     1      -0.794  -4.873   3.342  0.00  0.00    +0.031 A 
ATOM      7  N   UNL     1      -0.791  -5.756   5.712  0.00  0.00    -0.227 NA
ATOM      8  C   UNL     1       0.162  -6.137   6.531  0.00  0.00    +0.146 A 
ATOM      9  N   UNL     1       1.380  -6.008   5.915  0.00  0.00    -0.338 N 
ATOM     10  H   UNL     1       2.245  -6.221   6.300  0.00  0.00    +0.167 HD
ENDROOT
BRANCH   8  11
ATOM     11  C   UNL     1      -0.045  -6.628   7.904  0.00  0.00    +0.103 A 
ATOM     12  C   UNL     1      -1.319  -6.599   8.475  0.00  0.00    +0.050 A 
ATOM     13  C   UNL     1      -1.474  -7.100   9.847  0.00  0.00    +0.020 A 
ATOM     14  C   UNL     1      -2.722  -7.100  10.477  0.00  0.00    +0.012 A 
ATOM     15  C   UNL     1      -2.837  -7.573  11.754  0.00  0.00    +0.001 A 
ATOM     16  C   UNL     1      -1.724  -8.053  12.430  0.00  0.00    +0.002 A 
ATOM     17  C   UNL     1      -0.485  -8.062  11.827  0.00  0.00    +0.026 A 
ATOM     18  C   UNL     1      -0.344  -7.587  10.527  0.00  0.00    +0.051 A 
ATOM     19  N   UNL     1       0.888  -7.589   9.906  0.00  0.00    -0.321 N 
ATOM     20  H   UNL     1       1.660  -7.927  10.386  0.00  0.00    +0.169 HD
ATOM     21  C   UNL     1       1.044  -7.138   8.650  0.00  0.00    +0.262 A 
ATOM     22  O   UNL     1       2.152  -7.164   8.142  0.00  0.00    -0.267 OA
BRANCH  12  23
ATOM     23  N   UNL     1      -2.397  -6.115   7.774  0.00  0.00    -0.357 N 
ATOM     24  H   UNL     1      -2.295  -5.861   6.843  0.00  0.00    +0.142 HD
ATOM     25  H   UNL     1      -3.259  -6.027   8.209  0.00  0.00    +0.142 HD
ENDBRANCH  12  23
ENDBRANCH   8  11
BRANCH   1  26
ATOM     26  C   UNL     1      -0.554  -4.032   1.006  0.00  0.00    -0.043 C 
BRANCH  26  31
ATOM     27  C   UNL     1      -0.120   1.502   0.043  0.00  0.00    +0.104 C 
ATOM     28  N   UNL     1      -0.068   0.034   0.030  0.00  0.00    -0.309 NA
ATOM     29  C   UNL     1      -1.418  -0.540  -0.063  0.00  0.00    +0.065 C 
ATOM     30  C   UNL     1      -1.317  -2.065  -0.134  0.00  0.00    -0.063 C 
ATOM     31  N   UNL     1      -0.635  -2.567   1.066  0.00  0.00    +0.384 N 
ATOM     32  C   UNL     1       0.721  -2.005   1.132  0.00  0.00    -0.063 C 
ATOM     33  C   UNL     1       0.637  -0.479   1.213  0.00  0.00    +0.065 C 
ATOM     34  H   UNL     1      -1.153  -2.292   1.887  0.00  0.00    -0.081 HD
ENDBRANCH  26  31
ENDBRANCH   1  26
TORSDOF 4
