REMARK  Name = CHEMBL257533
REMARK  4 active torsions:
REMARK  status: ('A' for Active; 'I' for Inactive)
REMARK    1  A    between atoms: C_3  and  N_18
REMARK    2  A    between atoms: C_6  and  C_7
REMARK    3  A    between atoms: C_13  and  N_17
REMARK    4  A    between atoms: N_21  and  C_22
REMARK                            x       y       z     vdW  Elec       q    Type
REMARK                         _______ _______ _______ _____ _____    ______ ____
ROOT
ATOM      1  C   UNL     1      -0.130   1.792  -0.241  0.00  0.00    +0.010 A 
ATOM      2  C   UNL     1       1.047   2.481  -0.435  0.00  0.00    +0.024 A 
ATOM      3  C   UNL     1       2.266   1.858  -0.193  0.00  0.00    +0.035 A 
ATOM      4  C   UNL     1       2.302   0.539   0.246  0.00  0.00    +0.024 A 
ATOM      5  C   UNL     1       1.128  -0.154   0.442  0.00  0.00    +0.010 A 
ATOM      6  C   UNL     1      -0.098   0.468   0.200  0.00  0.00    -0.017 A 
ENDROOT
BRANCH   6   7
ATOM      7  C   UNL     1      -1.361  -0.275   0.410  0.00  0.00    -0.002 A 
ATOM      8  C   UNL     1      -1.659  -0.850   1.638  0.00  0.00    +0.029 A 
ATOM      9  C   UNL     1      -2.849  -1.544   1.817  0.00  0.00    +0.114 A 
ATOM     10  N   UNL     1      -3.734  -1.690   0.863  0.00  0.00    -0.234 NA
ATOM     11  C   UNL     1      -3.541  -1.172  -0.362  0.00  0.00    +0.184 A 
ATOM     12  C   UNL     1      -2.308  -0.417  -0.634  0.00  0.00    +0.067 A 
ATOM     13  C   UNL     1      -2.384  -0.000  -1.957  0.00  0.00    +0.121 A 
ATOM     14  N   UNL     1      -3.548  -0.446  -2.458  0.00  0.00    -0.262 N 
ATOM     15  N   UNL     1      -4.243  -1.166  -1.480  0.00  0.00    -0.152 NA
ATOM     16  H   UNL     1      -3.858  -0.296  -3.365  0.00  0.00    +0.190 HD
BRANCH  13  17
ATOM     17  N   UNL     1      -1.431   0.740  -2.637  0.00  0.00    -0.343 N 
ATOM     18  H   UNL     1      -0.573   0.923  -2.223  0.00  0.00    +0.144 HD
ATOM     19  H   UNL     1      -1.622   1.077  -3.526  0.00  0.00    +0.144 HD
ENDBRANCH  13  17
ENDBRANCH   6   7
BRANCH   3  20
ATOM     20  N   UNL     1       3.458   2.559  -0.392  0.00  0.00    -0.269 N 
ATOM     21  C   UNL     1       3.522   3.874  -0.105  0.00  0.00    +0.308 C 
ATOM     22  O   UNL     1       2.523   4.469   0.249  0.00  0.00    -0.252 OA
ATOM     23  N   UNL     1       4.695   4.531  -0.212  0.00  0.00    -0.269 N 
ATOM     24  H   UNL     1       4.240   2.099  -0.736  0.00  0.00    +0.156 HD
ATOM     25  H   UNL     1       5.475   4.076  -0.565  0.00  0.00    +0.156 HD
BRANCH  23  26
ATOM     26  C   UNL     1       4.786   5.878   0.189  0.00  0.00    +0.042 A 
ATOM     27  C   UNL     1       5.663   6.744  -0.446  0.00  0.00    +0.031 A 
ATOM     28  C   UNL     1       5.724   8.034  -0.034  0.00  0.00    +0.047 A 
ATOM     29  S   UNL     1       4.523   8.061   1.287  0.00  0.00    -0.103 S 
ATOM     30  C   UNL     1       4.013   6.352   1.201  0.00  0.00    +0.068 A 
ENDBRANCH  23  26
ENDBRANCH   3  20
TORSDOF 4
