REMARK  Name = CHEMBL205108
REMARK  3 active torsions:
REMARK  status: ('A' for Active; 'I' for Inactive)
REMARK    1  A    between atoms: C_6  and  N_7
REMARK    2  A    between atoms: C_14  and  C_17
REMARK    3  A    between atoms: C_18  and  N_28
REMARK                            x       y       z     vdW  Elec       q    Type
REMARK                         _______ _______ _______ _____ _____    ______ ____
ROOT
ATOM      1  C   UNL     1      -0.159   2.058   0.149  0.00  0.00    +0.025 A 
ATOM      2  C   UNL     1       1.108   2.599   0.095  0.00  0.00    +0.029 A 
ATOM      3  C   UNL     1       2.217   1.766   0.081  0.00  0.00    +0.067 A 
ATOM      4  C   UNL     1       2.049   0.370   0.122  0.00  0.00    +0.091 A 
ATOM      5  C   UNL     1       0.760  -0.168   0.175  0.00  0.00    +0.053 A 
ATOM      6  C   UNL     1      -0.335   0.676   0.189  0.00  0.00    +0.032 A 
ATOM      7  N   UNL     1       3.287  -0.184   0.097  0.00  0.00    -0.227 NA
ATOM      8  C   UNL     1       4.194   0.764   0.044  0.00  0.00    +0.146 A 
ATOM      9  N   UNL     1       3.583   1.990   0.033  0.00  0.00    -0.338 N 
ATOM     10  H   UNL     1       4.024   2.853  -0.004  0.00  0.00    +0.167 HD
ENDROOT
BRANCH   8  11
ATOM     11  C   UNL     1       5.650   0.542   0.005  0.00  0.00    +0.103 A 
ATOM     12  C   UNL     1       6.160  -0.752  -0.104  0.00  0.00    +0.050 A 
ATOM     13  C   UNL     1       7.618  -0.916  -0.139  0.00  0.00    +0.023 A 
ATOM     14  C   UNL     1       8.220  -2.173  -0.247  0.00  0.00    +0.031 A 
ATOM     15  C   UNL     1       9.597  -2.244  -0.274  0.00  0.00    +0.111 A 
ATOM     16  N   UNL     1      10.339  -1.154  -0.200  0.00  0.00    -0.261 NA
ATOM     17  C   UNL     1       9.821   0.052  -0.098  0.00  0.00    +0.137 A 
ATOM     18  C   UNL     1       8.440   0.223  -0.063  0.00  0.00    +0.069 A 
ATOM     19  N   UNL     1       7.873   1.476   0.044  0.00  0.00    -0.320 N 
ATOM     20  C   UNL     1       6.540   1.643   0.071  0.00  0.00    +0.262 A 
ATOM     21  O   UNL     1       6.085   2.769   0.162  0.00  0.00    -0.267 OA
ATOM     22  H   UNL     1       8.450   2.254   0.096  0.00  0.00    +0.169 HD
BRANCH  12  23
ATOM     23  N   UNL     1       5.324  -1.839  -0.175  0.00  0.00    -0.357 N 
ATOM     24  H   UNL     1       4.364  -1.710  -0.232  0.00  0.00    +0.142 HD
ATOM     25  H   UNL     1       5.693  -2.736  -0.168  0.00  0.00    +0.142 HD
ENDBRANCH  12  23
ENDBRANCH   8  11
BRANCH   6  26
ATOM     26  N   UNL     1      -1.626   0.140   0.243  0.00  0.00    -0.325 N 
ATOM     27  C   UNL     1      -1.847  -1.312   0.163  0.00  0.00    +0.133 C 
ATOM     28  C   UNL     1      -2.754  -1.728   1.327  0.00  0.00    +0.178 C 
ATOM     29  O   UNL     1      -3.924  -0.907   1.329  0.00  0.00    -0.377 OA
ATOM     30  C   UNL     1      -3.663   0.483   1.536  0.00  0.00    +0.178 C 
ATOM     31  C   UNL     1      -2.803   1.012   0.389  0.00  0.00    +0.133 C 
ENDBRANCH   6  26
TORSDOF 3
