REMARK  Name = CHEMBL368252
REMARK  8 active torsions:
REMARK  status: ('A' for Active; 'I' for Inactive)
REMARK    1  A    between atoms: C_1  and  O_2
REMARK    2  A    between atoms: O_2  and  C_3
REMARK    3  A    between atoms: C_6  and  O_15
REMARK    4  A    between atoms: C_12  and  O_13
REMARK    5  A    between atoms: O_13  and  C_14
REMARK    6  A    between atoms: O_15  and  C_16
REMARK    7  A    between atoms: C_19  and  N_22
REMARK    8  A    between atoms: N_25  and  C_26
REMARK                            x       y       z     vdW  Elec       q    Type
REMARK                         _______ _______ _______ _____ _____    ______ ____
ROOT
ATOM      1  C   UNL     1       2.929   2.400  -5.119  0.00  0.00    +0.129 A 
ATOM      2  C   UNL     1       3.519   1.784  -6.213  0.00  0.00    +0.048 A 
ATOM      3  C   UNL     1       4.111   2.549  -7.199  0.00  0.00    +0.027 A 
ATOM      4  C   UNL     1       4.116   3.933  -7.095  0.00  0.00    +0.035 A 
ATOM      5  C   UNL     1       3.525   4.549  -5.999  0.00  0.00    +0.027 A 
ATOM      6  C   UNL     1       2.928   3.783  -5.017  0.00  0.00    +0.048 A 
ENDROOT
BRANCH   4   7
ATOM      7  N   UNL     1       4.717   4.710  -8.095  0.00  0.00    -0.269 N 
ATOM      8  C   UNL     1       4.655   4.316  -9.382  0.00  0.00    +0.308 C 
ATOM      9  O   UNL     1       4.150   3.247  -9.667  0.00  0.00    -0.252 OA
ATOM     10  N   UNL     1       5.153   5.106 -10.353  0.00  0.00    -0.269 N 
ATOM     11  H   UNL     1       5.177   5.531  -7.860  0.00  0.00    +0.156 HD
ATOM     12  H   UNL     1       5.625   5.921 -10.121  0.00  0.00    +0.156 HD
BRANCH  10  13
ATOM     13  C   UNL     1       4.987   4.753 -11.697  0.00  0.00    +0.035 A 
ATOM     14  C   UNL     1       3.825   4.115 -12.111  0.00  0.00    +0.023 A 
ATOM     15  C   UNL     1       3.665   3.767 -13.438  0.00  0.00    +0.002 A 
ATOM     16  C   UNL     1       4.660   4.053 -14.354  0.00  0.00    +0.000 A 
ATOM     17  C   UNL     1       5.819   4.687 -13.945  0.00  0.00    +0.002 A 
ATOM     18  C   UNL     1       5.983   5.043 -12.621  0.00  0.00    +0.023 A 
ENDBRANCH  10  13
ENDBRANCH   4   7
BRANCH   1  19
ATOM     19  O   UNL     1       2.346   1.647  -4.149  0.00  0.00    -0.455 OA
BRANCH  19  23
ATOM     20  C   UNL     1       0.750  -0.485  -0.895  0.00  0.00    +0.162 A 
ATOM     21  C   UNL     1       1.233   0.216  -1.962  0.00  0.00    +0.063 A 
ATOM     22  C   UNL     1       2.617   0.283  -2.179  0.00  0.00    +0.044 A 
ATOM     23  C   UNL     1       3.154   1.000  -3.273  0.00  0.00    +0.139 A 
ATOM     24  C   UNL     1       4.529   1.022  -3.422  0.00  0.00    +0.064 A 
ATOM     25  C   UNL     1       5.332   0.350  -2.509  0.00  0.00    +0.086 A 
ATOM     26  N   UNL     1       4.823  -0.313  -1.497  0.00  0.00    -0.360 N 
ATOM     27  C   UNL     1       3.502  -0.376  -1.292  0.00  0.00    +0.054 A 
ATOM     28  C   UNL     1       2.974  -1.090  -0.203  0.00  0.00    +0.075 A 
ATOM     29  C   UNL     1       1.623  -1.134  -0.011  0.00  0.00    +0.163 A 
ATOM     30  H   UNL     1       5.419  -0.769  -0.882  0.00  0.00    +0.165 HD
BRANCH  20  32
ATOM     31  C   UNL     1      -1.430   0.132  -1.620  0.00  0.00    +0.277 C 
ATOM     32  O   UNL     1      -0.592  -0.550  -0.685  0.00  0.00    -0.491 OA
ENDBRANCH  20  32
BRANCH  29  33
ATOM     33  O   UNL     1       1.119  -1.821   1.047  0.00  0.00    -0.491 OA
ATOM     34  C   UNL     1       2.058  -2.461   1.913  0.00  0.00    +0.277 C 
ENDBRANCH  29  33
ENDBRANCH  19  23
ENDBRANCH   1  19
TORSDOF 6
