REMARK  Name = CHEMBL231127
REMARK  6 active torsions:
REMARK  status: ('A' for Active; 'I' for Inactive)
REMARK    1  A    between atoms: C_1  and  C_2
REMARK    2  A    between atoms: C_6  and  N_8
REMARK    3  A    between atoms: N_11  and  C_12
REMARK    4  A    between atoms: C_15  and  C_18
REMARK    5  A    between atoms: C_23  and  N_33
REMARK    6  A    between atoms: C_26  and  C_27
REMARK                            x       y       z     vdW  Elec       q    Type
REMARK                         _______ _______ _______ _____ _____    ______ ____
ROOT
ATOM      1  C   UNL     1      -0.488  -6.264   2.442  0.00  0.00    +0.035 A 
ATOM      2  C   UNL     1       0.049  -7.000   1.394  0.00  0.00    +0.024 A 
ATOM      3  C   UNL     1       0.102  -8.376   1.471  0.00  0.00    +0.010 A 
ATOM      4  C   UNL     1      -0.385  -9.028   2.604  0.00  0.00    -0.017 A 
ATOM      5  C   UNL     1      -0.924  -8.287   3.655  0.00  0.00    +0.010 A 
ATOM      6  C   UNL     1      -0.969  -6.911   3.574  0.00  0.00    +0.024 A 
ENDROOT
BRANCH   4   7
ATOM      7  C   UNL     1      -0.330 -10.507   2.689  0.00  0.00    +0.000 A 
ATOM      8  C   UNL     1      -1.458 -11.227   2.891  0.00  0.00    +0.055 A 
ATOM      9  S   UNL     1      -0.876 -12.912   2.917  0.00  0.00    -0.095 S 
ATOM     10  C   UNL     1       0.851 -12.614   2.659  0.00  0.00    +0.032 A 
ATOM     11  C   UNL     1       0.941 -11.213   2.552  0.00  0.00    +0.037 A 
ATOM     12  C   UNL     1       2.242 -10.690   2.333  0.00  0.00    +0.125 A 
ATOM     13  N   UNL     1       3.288 -11.483   2.234  0.00  0.00    -0.239 NA
ATOM     14  C   UNL     1       3.214 -12.800   2.328  0.00  0.00    +0.122 A 
ATOM     15  C   UNL     1       1.986 -13.415   2.553  0.00  0.00    +0.018 A 
BRANCH  15  16
ATOM     16  C   UNL     1       1.886 -14.890   2.660  0.00  0.00    +0.021 A 
ATOM     17  C   UNL     1       1.196 -15.489   3.719  0.00  0.00    +0.122 A 
ATOM     18  N   UNL     1       1.131 -16.808   3.776  0.00  0.00    -0.243 NA
ATOM     19  C   UNL     1       1.705 -17.555   2.854  0.00  0.00    +0.221 A 
ATOM     20  N   UNL     1       2.365 -17.032   1.840  0.00  0.00    -0.243 NA
ATOM     21  C   UNL     1       2.474 -15.722   1.702  0.00  0.00    +0.122 A 
ENDBRANCH  15  16
BRANCH  12  22
ATOM     22  N   UNL     1       2.415  -9.318   2.221  0.00  0.00    -0.343 N 
ATOM     23  H   UNL     1       1.797  -8.714   2.661  0.00  0.00    +0.144 HD
ATOM     24  H   UNL     1       3.154  -8.963   1.702  0.00  0.00    +0.144 HD
ENDBRANCH  12  22
ENDBRANCH   4   7
BRANCH   1  28
ATOM     25  N   UNL     1      -0.690  -2.925   1.075  0.00  0.00    -0.269 N 
ATOM     26  C   UNL     1      -0.738  -4.269   1.170  0.00  0.00    +0.308 C 
ATOM     27  O   UNL     1      -0.959  -4.941   0.181  0.00  0.00    -0.252 OA
ATOM     28  N   UNL     1      -0.541  -4.868   2.361  0.00  0.00    -0.269 N 
ATOM     29  H   UNL     1      -0.445  -2.393   1.848  0.00  0.00    +0.156 HD
ATOM     30  H   UNL     1      -0.435  -4.331   3.162  0.00  0.00    +0.156 HD
BRANCH  25  36
ATOM     31  C   UNL     1       0.063   0.762  -2.088  0.00  0.00    +0.044 C 
ATOM     32  C   UNL     1      -0.644  -0.510  -1.697  0.00  0.00    -0.049 A 
ATOM     33  C   UNL     1      -1.594  -1.059  -2.539  0.00  0.00    +0.003 A 
ATOM     34  C   UNL     1      -2.245  -2.226  -2.183  0.00  0.00    +0.002 A 
ATOM     35  C   UNL     1      -1.948  -2.847  -0.986  0.00  0.00    +0.023 A 
ATOM     36  C   UNL     1      -0.994  -2.299  -0.139  0.00  0.00    +0.035 A 
ATOM     37  C   UNL     1      -0.338  -1.129  -0.501  0.00  0.00    +0.026 A 
ENDBRANCH  25  36
ENDBRANCH   1  28
TORSDOF 5
