REMARK  Name = CHEMBL204446
REMARK  5 active torsions:
REMARK  status: ('A' for Active; 'I' for Inactive)
REMARK    1  A    between atoms: C_6  and  N_7
REMARK    2  A    between atoms: N_10  and  C_13
REMARK    3  A    between atoms: C_13  and  C_14
REMARK    4  A    between atoms: C_14  and  N_15
REMARK    5  A    between atoms: C_25  and  C_27
REMARK                            x       y       z     vdW  Elec       q    Type
REMARK                         _______ _______ _______ _____ _____    ______ ____
ROOT
ATOM      1  C   UNL     1      -0.003   1.322   0.001  0.00  0.00    +0.087 A 
ATOM      2  C   UNL     1       1.199   2.022  -0.011  0.00  0.00    +0.129 A 
ATOM      3  N   UNL     1       2.343   1.340  -0.025  0.00  0.00    -0.220 NA
ATOM      4  C   UNL     1       2.345   0.023  -0.026  0.00  0.00    +0.225 A 
ATOM      5  N   UNL     1       1.228  -0.676  -0.015  0.00  0.00    -0.221 NA
ATOM      6  C   UNL     1       0.043  -0.069  -0.001  0.00  0.00    +0.126 A 
ATOM      7  N   UNL     1       1.207   3.410  -0.011  0.00  0.00    -0.279 N 
ATOM      8  C   UNL     1       2.403   4.095   0.085  0.00  0.00    +0.165 A 
ATOM      9  N   UNL     1       3.628   3.602   0.089  0.00  0.00    -0.232 NA
ATOM     10  C   UNL     1       4.678   4.380   0.187  0.00  0.00    +0.139 A 
ATOM     11  C   UNL     1       4.430   5.741   0.285  0.00  0.00    +0.110 A 
ATOM     12  S   UNL     1       2.645   5.755   0.216  0.00  0.00    -0.042 S 
ATOM     13  H   UNL     1       0.372   3.900  -0.077  0.00  0.00    +0.155 HD
ENDROOT
BRANCH   6  14
ATOM     14  N   UNL     1      -1.127  -0.811   0.012  0.00  0.00    -0.319 N 
ATOM     15  C   UNL     1      -1.098  -2.267   0.226  0.00  0.00    +0.088 C 
ATOM     16  C   UNL     1      -2.100  -2.616   1.331  0.00  0.00    -0.060 C 
ATOM     17  N   UNL     1      -3.422  -2.082   0.978  0.00  0.00    +0.383 N 
ATOM     18  C   UNL     1      -3.374  -0.615   0.937  0.00  0.00    -0.060 C 
ATOM     19  C   UNL     1      -2.435  -0.166  -0.182  0.00  0.00    +0.088 C 
ATOM     20  H   UNL     1      -3.694  -2.434   0.072  0.00  0.00    -0.082 HD
BRANCH  17  21
ATOM     21  C   UNL     1      -4.405  -2.510   1.982  0.00  0.00    -0.063 C 
BRANCH  21  22
ATOM     22  C   UNL     1      -5.803  -2.061   1.551  0.00  0.00    +0.066 C 
BRANCH  22  23
ATOM     23  N   UNL     1      -6.786  -2.490   2.555  0.00  0.00    -0.300 NA
ATOM     24  C   UNL     1      -6.894  -3.955   2.595  0.00  0.00    +0.112 C 
ATOM     25  C   UNL     1      -7.882  -4.359   3.692  0.00  0.00    +0.175 C 
ATOM     26  O   UNL     1      -9.142  -3.730   3.447  0.00  0.00    -0.377 OA
ATOM     27  C   UNL     1      -9.074  -2.302   3.402  0.00  0.00    +0.175 C 
ATOM     28  C   UNL     1      -8.098  -1.877   2.301  0.00  0.00    +0.112 C 
ENDBRANCH  22  23
ENDBRANCH  21  22
ENDBRANCH  17  21
ENDBRANCH   6  14
BRANCH  11  29
ATOM     29  C   UNL     1       5.349   6.833   0.403  0.00  0.00    +0.108 C 
ATOM     30  N   UNL     1       6.078   7.699   0.497  0.00  0.00    -0.190 NA
ENDBRANCH  11  29
TORSDOF 5
