REMARK  Name = CHEMBL495763
REMARK  5 active torsions:
REMARK  status: ('A' for Active; 'I' for Inactive)
REMARK    1  A    between atoms: C_1  and  C_2
REMARK    2  A    between atoms: C_8  and  N_30
REMARK    3  A    between atoms: C_9  and  C_14
REMARK    4  A    between atoms: C_19  and  N_23
REMARK    5  A    between atoms: N_26  and  C_29
REMARK                            x       y       z     vdW  Elec       q    Type
REMARK                         _______ _______ _______ _____ _____    ______ ____
ROOT
ATOM      1  C   UNL     1       0.036  -0.347   4.805  0.00  0.00    +0.146 A 
ATOM      2  N   UNL     1      -0.108   0.919   5.120  0.00  0.00    -0.227 NA
ATOM      3  C   UNL     1      -0.205   1.045   6.468  0.00  0.00    +0.090 A 
ATOM      4  C   UNL     1      -0.366   2.144   7.318  0.00  0.00    +0.032 A 
ATOM      5  C   UNL     1      -0.432   1.958   8.669  0.00  0.00    +0.025 A 
ATOM      6  C   UNL     1      -0.341   0.679   9.214  0.00  0.00    +0.032 A 
ATOM      7  C   UNL     1      -0.181  -0.423   8.389  0.00  0.00    +0.051 A 
ATOM      8  C   UNL     1      -0.113  -0.247   7.015  0.00  0.00    +0.068 A 
ATOM      9  N   UNL     1       0.034  -1.111   5.945  0.00  0.00    -0.338 N 
ATOM     10  H   UNL     1       0.121  -2.075   5.991  0.00  0.00    +0.167 HD
ENDROOT
BRANCH   1  19
ATOM     11  C   UNL     1       0.516   1.763   0.043  0.00  0.00    +0.044 C 
ATOM     12  C   UNL     1       0.530   0.264  -0.113  0.00  0.00    -0.040 A 
ATOM     13  C   UNL     1       0.661  -0.300  -1.362  0.00  0.00    +0.004 A 
ATOM     14  C   UNL     1       0.675  -1.680  -1.511  0.00  0.00    +0.002 A 
ATOM     15  C   UNL     1       0.559  -2.506  -0.414  0.00  0.00    +0.026 A 
ATOM     16  C   UNL     1       0.426  -1.959   0.858  0.00  0.00    +0.051 A 
ATOM     17  C   UNL     1       0.417  -0.560   1.009  0.00  0.00    +0.023 A 
ATOM     18  C   UNL     1       0.282   0.010   2.356  0.00  0.00    +0.050 A 
ATOM     19  C   UNL     1       0.173  -0.870   3.435  0.00  0.00    +0.103 A 
ATOM     20  C   UNL     1       0.195  -2.266   3.204  0.00  0.00    +0.262 A 
ATOM     21  O   UNL     1       0.099  -3.026   4.152  0.00  0.00    -0.267 OA
ATOM     22  N   UNL     1       0.308  -2.773   1.966  0.00  0.00    -0.321 N 
ATOM     23  H   UNL     1       0.319  -3.736   1.849  0.00  0.00    +0.169 HD
BRANCH  18  24
ATOM     24  N   UNL     1       0.264   1.370   2.549  0.00  0.00    -0.357 N 
ATOM     25  H   UNL     1      -0.380   1.766   3.156  0.00  0.00    +0.142 HD
ATOM     26  H   UNL     1       0.896   1.935   2.077  0.00  0.00    +0.142 HD
ENDBRANCH  18  24
ENDBRANCH   1  19
BRANCH   6  27
ATOM     27  N   UNL     1      -0.410   0.506  10.600  0.00  0.00    -0.333 N 
ATOM     28  C   UNL     1      -0.434  -0.840  11.194  0.00  0.00    +0.086 C 
ATOM     29  C   UNL     1       0.633  -0.905  12.293  0.00  0.00    -0.060 C 
ATOM     30  N   UNL     1       0.413   0.185  13.252  0.00  0.00    +0.380 N 
ATOM     31  C   UNL     1       0.607   1.481  12.589  0.00  0.00    -0.060 C 
ATOM     32  C   UNL     1      -0.455   1.664  11.506  0.00  0.00    +0.086 C 
ATOM     33  C   UNL     1       1.367   0.057  14.362  0.00  0.00    -0.096 C 
ATOM     34  H   UNL     1      -0.528   0.130  13.612  0.00  0.00    -0.082 HD
ENDBRANCH   6  27
TORSDOF 3
