REMARK  Name = CHEMBL387604
REMARK  7 active torsions:
REMARK  status: ('A' for Active; 'I' for Inactive)
REMARK    1  A    between atoms: C_1  and  O_2
REMARK    2  A    between atoms: O_2  and  C_3
REMARK    3  A    between atoms: C_10  and  O_15
REMARK    4  A    between atoms: O_15  and  C_16
REMARK    5  A    between atoms: C_19  and  N_22
REMARK    6  A    between atoms: N_25  and  C_26
REMARK    7  A    between atoms: C_28  and  C_33
REMARK                            x       y       z     vdW  Elec       q    Type
REMARK                         _______ _______ _______ _____ _____    ______ ____
ROOT
ATOM      1  C   UNL     1       4.335  -6.291   7.067  0.00  0.00    +0.129 A 
ATOM      2  C   UNL     1       4.587  -5.064   7.666  0.00  0.00    +0.048 A 
ATOM      3  C   UNL     1       5.312  -5.005   8.839  0.00  0.00    +0.027 A 
ATOM      4  C   UNL     1       5.790  -6.172   9.420  0.00  0.00    +0.035 A 
ATOM      5  C   UNL     1       5.538  -7.399   8.821  0.00  0.00    +0.027 A 
ATOM      6  C   UNL     1       4.808  -7.458   7.650  0.00  0.00    +0.048 A 
ENDROOT
BRANCH   4   7
ATOM      7  N   UNL     1       6.527  -6.112  10.611  0.00  0.00    -0.269 N 
ATOM      8  C   UNL     1       6.224  -5.188  11.544  0.00  0.00    +0.308 C 
ATOM      9  O   UNL     1       5.367  -4.355  11.320  0.00  0.00    -0.252 OA
ATOM     10  N   UNL     1       6.871  -5.189  12.727  0.00  0.00    -0.267 N 
ATOM     11  H   UNL     1       7.254  -6.735  10.763  0.00  0.00    +0.156 HD
ATOM     12  H   UNL     1       7.593  -5.816  12.884  0.00  0.00    +0.156 HD
BRANCH  10  13
ATOM     13  C   UNL     1       6.499  -4.283  13.729  0.00  0.00    +0.071 A 
ATOM     14  C   UNL     1       5.887  -3.084  13.390  0.00  0.00    +0.038 A 
ATOM     15  C   UNL     1       5.522  -2.192  14.380  0.00  0.00    +0.057 A 
ATOM     16  C   UNL     1       5.766  -2.492  15.708  0.00  0.00    +0.015 A 
ATOM     17  C   UNL     1       6.375  -3.685  16.050  0.00  0.00    +0.041 A 
ATOM     18  C   UNL     1       6.738  -4.585  15.065  0.00  0.00    +0.145 A 
ATOM     19  F   UNL     1       7.329  -5.753  15.399  0.00  0.00    -0.204 F 
BRANCH  15  20
ATOM     20  C   UNL     1       4.857  -0.891  14.012  0.00  0.00    +0.417 C 
ATOM     21  F   UNL     1       3.470  -1.067  13.984  0.00  0.00    -0.166 F 
ATOM     22  F   UNL     1       5.184   0.084  14.960  0.00  0.00    -0.166 F 
ATOM     23  F   UNL     1       5.301  -0.481  12.750  0.00  0.00    -0.166 F 
ENDBRANCH  15  20
ENDBRANCH  10  13
ENDBRANCH   4   7
BRANCH   1  24
ATOM     24  O   UNL     1       3.620  -6.349   5.912  0.00  0.00    -0.454 OA
BRANCH  24  32
ATOM     25  C   UNL     1       8.441  -3.795  -0.080  0.00  0.00    +0.406 C 
ATOM     26  O   UNL     1       7.443  -4.128  -0.687  0.00  0.00    -0.226 OA
ATOM     27  N   UNL     1       8.486  -3.920   1.262  0.00  0.00    -0.221 N 
ATOM     28  C   UNL     1       7.396  -4.428   1.947  0.00  0.00    +0.204 A 
ATOM     29  N   UNL     1       7.331  -4.586   3.244  0.00  0.00    -0.212 NA
ATOM     30  C   UNL     1       6.122  -5.106   3.578  0.00  0.00    +0.113 A 
ATOM     31  C   UNL     1       5.528  -5.468   4.790  0.00  0.00    +0.079 A 
ATOM     32  C   UNL     1       4.240  -5.982   4.759  0.00  0.00    +0.149 A 
ATOM     33  C   UNL     1       3.588  -6.119   3.538  0.00  0.00    +0.159 A 
ATOM     34  N   UNL     1       4.171  -5.770   2.410  0.00  0.00    -0.232 NA
ATOM     35  C   UNL     1       5.397  -5.275   2.385  0.00  0.00    +0.159 A 
ATOM     36  N   UNL     1       6.226  -4.833   1.370  0.00  0.00    -0.311 N 
ATOM     37  H   UNL     1       9.283  -3.654   1.746  0.00  0.00    +0.161 HD
ATOM     38  H   UNL     1       6.017  -4.816   0.423  0.00  0.00    +0.170 HD
BRANCH  25  40
ATOM     39  C   UNL     1       9.383  -3.197  -2.167  0.00  0.00    +0.282 C 
ATOM     40  O   UNL     1       9.501  -3.301  -0.746  0.00  0.00    -0.453 OA
ENDBRANCH  25  40
ENDBRANCH  24  32
ENDBRANCH   1  24
TORSDOF 6
