REMARK  Name = CHEMBL233225
REMARK  5 active torsions:
REMARK  status: ('A' for Active; 'I' for Inactive)
REMARK    1  A    between atoms: C_3  and  N_14
REMARK    2  A    between atoms: C_6  and  C_7
REMARK    3  A    between atoms: C_7  and  C_8
REMARK    4  A    between atoms: C_8  and  N_9
REMARK    5  A    between atoms: C_19  and  C_21
REMARK                            x       y       z     vdW  Elec       q    Type
REMARK                         _______ _______ _______ _____ _____    ______ ____
ROOT
ATOM      1  N   UNL     1       3.583   2.123  -0.021  0.00  0.00    -0.284 N 
ATOM      2  C   UNL     1       3.628   3.409   0.492  0.00  0.00    +0.220 A 
ATOM      3  N   UNL     1       2.551   3.907   1.081  0.00  0.00    -0.221 NA
ATOM      4  C   UNL     1       2.553   5.132   1.584  0.00  0.00    +0.136 A 
ATOM      5  C   UNL     1       3.701   5.900   1.491  0.00  0.00    +0.085 A 
ATOM      6  C   UNL     1       4.823   5.347   0.864  0.00  0.00    +0.094 A 
ATOM      7  N   UNL     1       4.748   4.106   0.386  0.00  0.00    -0.213 NA
ATOM      8 CL   UNL     1       3.748   7.511   2.137  0.00  0.00    -0.080 Cl
ATOM      9  H   UNL     1       4.387   1.715  -0.379  0.00  0.00    +0.155 HD
ENDROOT
BRANCH   6  10
ATOM     10  C   UNL     1       6.076   6.128   0.738  0.00  0.00    +0.004 A 
ATOM     11  C   UNL     1       6.016   7.513   0.542  0.00  0.00    +0.011 A 
ATOM     12  C   UNL     1       7.162   8.243   0.425  0.00  0.00    +0.010 A 
ATOM     13  C   UNL     1       8.405   7.607   0.502  0.00  0.00    -0.000 A 
ATOM     14  C   UNL     1       9.789   8.075   0.421  0.00  0.00    +0.027 A 
ATOM     15  C   UNL     1      10.578   6.997   0.566  0.00  0.00    +0.083 A 
ATOM     16  N   UNL     1       9.812   5.878   0.734  0.00  0.00    -0.361 N 
ATOM     17  H   UNL     1      10.156   4.980   0.859  0.00  0.00    +0.165 HD
ATOM     18  C   UNL     1       8.476   6.215   0.700  0.00  0.00    +0.047 A 
ATOM     19  C   UNL     1       7.304   5.482   0.823  0.00  0.00    +0.036 A 
ENDBRANCH   6  10
BRANCH   1  22
ATOM     20  C   UNL     1      -0.013   1.380  -0.200  0.00  0.00    +0.005 A 
ATOM     21  C   UNL     1       1.175   2.084  -0.198  0.00  0.00    +0.023 A 
ATOM     22  C   UNL     1       2.379   1.413  -0.023  0.00  0.00    +0.034 A 
ATOM     23  C   UNL     1       2.383   0.035   0.149  0.00  0.00    +0.023 A 
ATOM     24  C   UNL     1       1.191  -0.663   0.146  0.00  0.00    +0.005 A 
ATOM     25  C   UNL     1      -0.005   0.008  -0.028  0.00  0.00    -0.049 A 
BRANCH  25  26
ATOM     26  C   UNL     1      -1.304  -0.757  -0.030  0.00  0.00    +0.016 C 
BRANCH  26  27
ATOM     27  C   UNL     1      -1.635  -1.194  -1.458  0.00  0.00    -0.074 C 
BRANCH  27  28
ATOM     28  N   UNL     1      -2.901  -1.940  -1.460  0.00  0.00    +0.380 N 
ATOM     29  C   UNL     1      -4.032  -1.030  -1.145  0.00  0.00    -0.079 C 
ATOM     30  C   UNL     1      -5.260  -1.777  -1.725  0.00  0.00    -0.020 C 
ATOM     31  C   UNL     1      -4.701  -2.406  -3.022  0.00  0.00    -0.020 C 
ATOM     32  C   UNL     1      -3.177  -2.473  -2.812  0.00  0.00    -0.079 C 
ATOM     33  H   UNL     1      -2.862  -2.694  -0.790  0.00  0.00    -0.082 HD
ENDBRANCH  27  28
ENDBRANCH  26  27
ENDBRANCH  25  26
ENDBRANCH   1  22
TORSDOF 5
