REMARK  Name = CHEMBL567475
REMARK  9 active torsions:
REMARK  status: ('A' for Active; 'I' for Inactive)
REMARK    1  A    between atoms: C_1  and  C_2
REMARK    2  A    between atoms: C_2  and  N_3
REMARK    3  A    between atoms: C_5  and  C_8
REMARK    4  A    between atoms: C_13  and  O_17
REMARK    5  A    between atoms: O_17  and  C_18
REMARK    6  A    between atoms: C_21  and  N_25
REMARK    7  A    between atoms: C_26  and  C_28
REMARK    8  A    between atoms: C_28  and  C_29
REMARK    9  A    between atoms: N_31  and  C_32
REMARK                            x       y       z     vdW  Elec       q    Type
REMARK                         _______ _______ _______ _____ _____    ______ ____
ROOT
ATOM      1  C   UNL     1      -7.618  -2.733   6.715  0.00  0.00    +0.164 A 
ATOM      2  C   UNL     1      -8.812  -3.291   6.285  0.00  0.00    +0.051 A 
ATOM      3  C   UNL     1      -9.764  -3.681   7.207  0.00  0.00    +0.027 A 
ATOM      4  C   UNL     1      -9.527  -3.513   8.564  0.00  0.00    +0.036 A 
ATOM      5  C   UNL     1      -8.332  -2.954   8.996  0.00  0.00    +0.065 A 
ATOM      6  C   UNL     1      -7.376  -2.570   8.073  0.00  0.00    +0.167 A 
ATOM      7  F   UNL     1      -6.210  -2.031   8.493  0.00  0.00    -0.202 F 
ENDROOT
BRANCH   4   8
ATOM      8  N   UNL     1     -10.493  -3.908   9.498  0.00  0.00    -0.285 N 
ATOM      9  C   UNL     1     -10.123  -4.251  10.748  0.00  0.00    +0.226 C 
ATOM     10  O   UNL     1      -8.946  -4.325  11.032  0.00  0.00    -0.275 OA
ATOM     11  H   UNL     1     -11.430  -3.933   9.246  0.00  0.00    +0.155 HD
BRANCH   9  12
ATOM     12  C   UNL     1     -11.170  -4.544  11.791  0.00  0.00    +0.192 C 
BRANCH  12  13
ATOM     13  C   UNL     1     -10.497  -4.901  13.092  0.00  0.00    +0.226 C 
ATOM     14  O   UNL     1      -9.287  -4.916  13.164  0.00  0.00    -0.275 OA
ATOM     15  N   UNL     1     -11.241  -5.202  14.174  0.00  0.00    -0.285 N 
ATOM     16  H   UNL     1     -12.206  -5.268  14.097  0.00  0.00    +0.155 HD
BRANCH  15  17
ATOM     17  C   UNL     1     -10.621  -5.422  15.411  0.00  0.00    +0.034 A 
ATOM     18  C   UNL     1     -11.136  -6.368  16.288  0.00  0.00    +0.026 A 
ATOM     19  C   UNL     1     -10.523  -6.583  17.507  0.00  0.00    +0.040 A 
ATOM     20  C   UNL     1      -9.396  -5.856  17.854  0.00  0.00    +0.124 A 
ATOM     21  C   UNL     1      -8.882  -4.913  16.981  0.00  0.00    +0.040 A 
ATOM     22  C   UNL     1      -9.488  -4.699  15.758  0.00  0.00    +0.026 A 
ATOM     23  F   UNL     1      -8.799  -6.068  19.047  0.00  0.00    -0.205 F 
ENDBRANCH  15  17
ENDBRANCH  12  13
ENDBRANCH   9  12
ENDBRANCH   4   8
BRANCH   1  24
ATOM     24  O   UNL     1      -6.681  -2.350   5.807  0.00  0.00    -0.452 OA
BRANCH  24  30
ATOM     25  C   UNL     1      -3.113  -2.223   2.508  0.00  0.00    +0.042 A 
ATOM     26  C   UNL     1      -2.955  -3.458   3.050  0.00  0.00    +0.046 A 
ATOM     27  C   UNL     1      -3.819  -3.893   4.073  0.00  0.00    +0.082 A 
ATOM     28  C   UNL     1      -4.813  -2.967   4.458  0.00  0.00    +0.080 A 
ATOM     29  S   UNL     1      -4.504  -1.567   3.413  0.00  0.00    -0.081 S 
ATOM     30  C   UNL     1      -5.733  -3.253   5.450  0.00  0.00    +0.146 A 
ATOM     31  C   UNL     1      -5.656  -4.498   6.071  0.00  0.00    +0.067 A 
ATOM     32  C   UNL     1      -4.667  -5.378   5.664  0.00  0.00    +0.115 A 
ATOM     33  N   UNL     1      -3.809  -5.080   4.722  0.00  0.00    -0.254 NA
BRANCH  25  36
ATOM     34  N   UNL     1      -1.572  -0.142  -0.031  0.00  0.00    -0.336 N 
ATOM     35  C   UNL     1      -2.521  -0.330   0.933  0.00  0.00    +0.115 A 
ATOM     36  C   UNL     1      -2.323  -1.579   1.438  0.00  0.00    +0.095 A 
ATOM     37  N   UNL     1      -1.274  -2.123   0.784  0.00  0.00    -0.235 NA
ATOM     38  C   UNL     1      -0.829  -1.269  -0.095  0.00  0.00    +0.200 A 
BRANCH  34  40
ATOM     39  C   UNL     1      -2.237   0.937  -2.122  0.00  0.00    +0.027 C 
ATOM     40  C   UNL     1      -1.395   1.059  -0.851  0.00  0.00    +0.119 C 
ENDBRANCH  34  40
ENDBRANCH  25  36
ENDBRANCH  24  30
ENDBRANCH   1  24
TORSDOF 8
