REMARK  Name = CHEMBL425672
REMARK  8 active torsions:
REMARK  status: ('A' for Active; 'I' for Inactive)
REMARK    1  A    between atoms: C_1  and  N_2
REMARK    2  A    between atoms: C_3  and  C_5
REMARK    3  A    between atoms: C_7  and  O_11
REMARK    4  A    between atoms: O_11  and  C_12
REMARK    5  A    between atoms: N_21  and  C_22
REMARK    6  A    between atoms: C_26  and  O_28
REMARK    7  A    between atoms: O_28  and  C_29
REMARK    8  A    between atoms: C_29  and  C_30
REMARK                            x       y       z     vdW  Elec       q    Type
REMARK                         _______ _______ _______ _____ _____    ______ ____
ROOT
ATOM      1  C   UNL     1      -3.430  -6.359  -0.127  0.00  0.00    +0.131 A 
ATOM      2  C   UNL     1      -2.224  -7.051  -0.147  0.00  0.00    +0.050 A 
ATOM      3  C   UNL     1      -2.210  -8.430  -0.192  0.00  0.00    +0.052 A 
ATOM      4  C   UNL     1      -3.404  -9.133  -0.218  0.00  0.00    +0.157 A 
ATOM      5  C   UNL     1      -4.624  -8.442  -0.199  0.00  0.00    +0.115 A 
ATOM      6  C   UNL     1      -4.629  -7.048  -0.147  0.00  0.00    +0.078 A 
ATOM      7  N   UNL     1      -5.606  -9.384  -0.233  0.00  0.00    -0.195 NA
ATOM      8  C   UNL     1      -5.051 -10.568  -0.271  0.00  0.00    +0.293 A 
ATOM      9  O   UNL     1      -3.712 -10.451  -0.263  0.00  0.00    -0.424 OA
ATOM     10  N   UNL     1      -5.739 -11.761  -0.311  0.00  0.00    -0.269 N 
ATOM     11  H   UNL     1      -6.704 -11.762  -0.409  0.00  0.00    +0.157 HD
ENDROOT
BRANCH  10  12
ATOM     12  C   UNL     1      -5.046 -12.972  -0.212  0.00  0.00    +0.038 A 
ATOM     13  C   UNL     1      -3.827 -13.023   0.453  0.00  0.00    +0.025 A 
ATOM     14  C   UNL     1      -3.142 -14.218   0.552  0.00  0.00    +0.025 A 
ATOM     15  C   UNL     1      -3.667 -15.367  -0.011  0.00  0.00    +0.083 A 
ATOM     16  C   UNL     1      -4.885 -15.322  -0.677  0.00  0.00    +0.140 A 
ATOM     17  C   UNL     1      -5.577 -14.125  -0.772  0.00  0.00    +0.070 A 
ATOM     18 CL   UNL     1      -2.802 -16.867   0.113  0.00  0.00    -0.080 Cl
BRANCH  16  19
ATOM     19  O   UNL     1      -5.399 -16.452  -1.230  0.00  0.00    -0.490 OA
BRANCH  19  20
ATOM     20  C   UNL     1      -6.656 -16.332  -1.899  0.00  0.00    +0.232 C 
BRANCH  20  21
ATOM     21  C   UNL     1      -7.072 -17.696  -2.453  0.00  0.00    +0.023 C 
ATOM     22  C   UNL     1      -6.084 -18.130  -3.540  0.00  0.00    -0.012 C 
ATOM     23  C   UNL     1      -6.549 -19.456  -4.145  0.00  0.00    -0.082 C 
ATOM     24  N   UNL     1      -7.884 -19.289  -4.732  0.00  0.00    +0.379 N 
ATOM     25  C   UNL     1      -8.850 -18.943  -3.683  0.00  0.00    -0.082 C 
ATOM     26  C   UNL     1      -8.474 -17.597  -3.061  0.00  0.00    -0.012 C 
ATOM     27  H   UNL     1      -7.857 -18.551  -5.420  0.00  0.00    -0.086 HD
ATOM     28  H   UNL     1      -8.165 -20.150  -5.177  0.00  0.00    -0.086 HD
ENDBRANCH  20  21
ENDBRANCH  19  20
ENDBRANCH  16  19
ENDBRANCH  10  12
BRANCH   1  29
ATOM     29  O   UNL     1      -3.431  -5.000  -0.082  0.00  0.00    -0.456 OA
BRANCH  29  32
ATOM     30  C   UNL     1      -2.470  -4.275  -3.525  0.00  0.00    +0.129 A 
ATOM     31  C   UNL     1      -2.758  -5.005  -2.377  0.00  0.00    +0.079 A 
ATOM     32  C   UNL     1      -3.141  -4.325  -1.224  0.00  0.00    +0.132 A 
ATOM     33  C   UNL     1      -3.220  -2.936  -1.270  0.00  0.00    +0.066 A 
ATOM     34  C   UNL     1      -2.918  -2.280  -2.449  0.00  0.00    +0.115 A 
ATOM     35  N   UNL     1      -2.554  -2.949  -3.522  0.00  0.00    -0.250 NA
BRANCH  30  38
ATOM     36  C   UNL     1      -1.372  -4.979  -7.099  0.00  0.00    +0.128 C 
ATOM     37  N   UNL     1      -1.776  -4.280  -5.876  0.00  0.00    -0.313 N 
ATOM     38  C   UNL     1      -2.062  -4.982  -4.762  0.00  0.00    +0.262 C 
ATOM     39  O   UNL     1      -1.984  -6.194  -4.771  0.00  0.00    -0.269 OA
ATOM     40  H   UNL     1      -1.838  -3.312  -5.869  0.00  0.00    +0.149 HD
ENDBRANCH  30  38
ENDBRANCH  29  32
ENDBRANCH   1  29
TORSDOF 7
