REMARK  Name = CHEMBL117983
REMARK  4 active torsions:
REMARK  status: ('A' for Active; 'I' for Inactive)
REMARK    1  A    between atoms: C_1  and  N_2
REMARK    2  A    between atoms: N_5  and  S_8
REMARK    3  A    between atoms: S_8  and  C_11
REMARK    4  A    between atoms: C_18  and  C_21
REMARK                            x       y       z     vdW  Elec       q    Type
REMARK                         _______ _______ _______ _____ _____    ______ ____
ROOT
ATOM      1  C   UNL     1       3.868  -2.947  -0.065  0.00  0.00    +0.106 A 
ATOM      2  C   UNL     1       4.463  -2.623  -1.277  0.00  0.00    +0.030 A 
ATOM      3  C   UNL     1       5.691  -2.000  -1.313  0.00  0.00    +0.028 A 
ATOM      4  C   UNL     1       6.344  -1.689  -0.125  0.00  0.00    +0.047 A 
ATOM      5  C   UNL     1       5.737  -2.018   1.102  0.00  0.00    +0.002 A 
ATOM      6  C   UNL     1       4.487  -2.647   1.114  0.00  0.00    +0.038 A 
ATOM      7  C   UNL     1       6.654  -1.571   2.147  0.00  0.00    +0.036 A 
ATOM      8  C   UNL     1       7.725  -1.016   1.523  0.00  0.00    +0.053 A 
ATOM      9  N   UNL     1       7.548  -1.082   0.160  0.00  0.00    -0.354 N 
ATOM     10  H   UNL     1       8.177  -0.752  -0.501  0.00  0.00    +0.166 HD
ENDROOT
BRANCH   8  11
ATOM     11  C   UNL     1       8.899  -0.432   2.202  0.00  0.00    +0.063 A 
ATOM     12  C   UNL     1       9.164   0.917   2.097  0.00  0.00    +0.025 A 
ATOM     13  C   UNL     1      10.298   1.450   2.761  0.00  0.00    -0.001 A 
ATOM     14  C   UNL     1      10.591   2.819   2.671  0.00  0.00    +0.010 A 
ATOM     15  C   UNL     1      11.685   3.324   3.314  0.00  0.00    +0.001 A 
ATOM     16  C   UNL     1      12.512   2.493   4.057  0.00  0.00    +0.002 A 
ATOM     17  C   UNL     1      12.245   1.145   4.159  0.00  0.00    +0.026 A 
ATOM     18  C   UNL     1      11.135   0.606   3.514  0.00  0.00    +0.049 A 
ATOM     19  N   UNL     1      10.863  -0.743   3.614  0.00  0.00    -0.322 N 
ATOM     20  C   UNL     1       9.791  -1.279   3.001  0.00  0.00    +0.258 A 
ATOM     21  O   UNL     1       9.565  -2.472   3.106  0.00  0.00    -0.267 OA
ATOM     22  H   UNL     1      11.450  -1.312   4.137  0.00  0.00    +0.169 HD
ENDBRANCH   8  11
BRANCH   1  23
ATOM     23  S   UNL     1       2.296  -3.744  -0.049  0.00  0.00    +0.061 S 
ATOM     24  O   UNL     1       2.200  -4.426   1.194  0.00  0.00    -0.153 OA
ATOM     25  O   UNL     1       2.167  -4.412  -1.296  0.00  0.00    -0.153 OA
BRANCH  23  30
ATOM     26  C   UNL     1      -0.018   1.465   0.010  0.00  0.00    -0.096 C 
ATOM     27  N   UNL     1       0.002  -0.004   0.002  0.00  0.00    +0.380 N 
ATOM     28  C   UNL     1       0.680  -0.476  -1.212  0.00  0.00    -0.062 C 
ATOM     29  C   UNL     1       0.601  -2.005  -1.279  0.00  0.00    +0.091 C 
ATOM     30  N   UNL     1       1.144  -2.555  -0.027  0.00  0.00    -0.180 NA
ATOM     31  C   UNL     1       0.635  -2.018   1.245  0.00  0.00    +0.091 C 
ATOM     32  C   UNL     1       0.713  -0.489   1.192  0.00  0.00    -0.062 C 
ATOM     33  H   UNL     1      -0.945  -0.352   0.012  0.00  0.00    -0.082 HD
ENDBRANCH  23  30
ENDBRANCH   1  23
TORSDOF 3
