REMARK  Name = CHEMBL231612
REMARK  8 active torsions:
REMARK  status: ('A' for Active; 'I' for Inactive)
REMARK    1  A    between atoms: C_1  and  C_2
REMARK    2  A    between atoms: C_6  and  N_8
REMARK    3  A    between atoms: N_11  and  C_12
REMARK    4  A    between atoms: C_15  and  C_18
REMARK    5  A    between atoms: C_23  and  N_37
REMARK    6  A    between atoms: C_26  and  C_27
REMARK    7  A    between atoms: C_31  and  C_33
REMARK    8  A    between atoms: N_35  and  C_36
REMARK                            x       y       z     vdW  Elec       q    Type
REMARK                         _______ _______ _______ _____ _____    ______ ____
ROOT
ATOM      1  C   UNL     1       0.822 -10.493   2.823  0.00  0.00    +0.000 A 
ATOM      2  C   UNL     1       0.342 -11.196   1.770  0.00  0.00    +0.055 A 
ATOM      3  S   UNL     1       0.468 -12.890   2.310  0.00  0.00    -0.095 S 
ATOM      4  C   UNL     1       1.155 -12.620   3.920  0.00  0.00    +0.032 A 
ATOM      5  C   UNL     1       1.279 -11.219   4.005  0.00  0.00    +0.035 A 
ATOM      6  C   UNL     1       1.820 -10.717   5.217  0.00  0.00    +0.103 A 
ATOM      7  N   UNL     1       2.183 -11.528   6.189  0.00  0.00    -0.349 N 
ATOM      8  C   UNL     1       2.076 -12.844   6.117  0.00  0.00    +0.093 A 
ATOM      9  C   UNL     1       1.547 -13.439   4.976  0.00  0.00    +0.012 A 
ATOM     10  H   UNL     1       2.549 -11.140   7.000  0.00  0.00    +0.167 HD
ENDROOT
BRANCH   1  14
ATOM     11  C   UNL     1       1.012  -6.247   2.683  0.00  0.00    +0.035 A 
ATOM     12  C   UNL     1       2.164  -6.985   2.924  0.00  0.00    +0.024 A 
ATOM     13  C   UNL     1       2.105  -8.362   2.970  0.00  0.00    +0.010 A 
ATOM     14  C   UNL     1       0.888  -9.013   2.775  0.00  0.00    -0.017 A 
ATOM     15  C   UNL     1      -0.267  -8.270   2.534  0.00  0.00    +0.010 A 
ATOM     16  C   UNL     1      -0.203  -6.893   2.494  0.00  0.00    +0.024 A 
BRANCH  11  20
ATOM     17  N   UNL     1       2.277  -2.896   2.200  0.00  0.00    -0.269 N 
ATOM     18  C   UNL     1       2.176  -4.240   2.155  0.00  0.00    +0.308 C 
ATOM     19  O   UNL     1       3.078  -4.902   1.678  0.00  0.00    -0.252 OA
ATOM     20  N   UNL     1       1.075  -4.849   2.637  0.00  0.00    -0.269 N 
ATOM     21  H   UNL     1       1.591  -2.373   2.643  0.00  0.00    +0.156 HD
ATOM     22  H   UNL     1       0.326  -4.319   2.951  0.00  0.00    +0.156 HD
BRANCH  17  28
ATOM     23  C   UNL     1       5.521   0.798   2.191  0.00  0.00    +0.044 C 
ATOM     24  C   UNL     1       4.965  -0.465   1.585  0.00  0.00    -0.049 A 
ATOM     25  C   UNL     1       5.540  -0.993   0.443  0.00  0.00    +0.003 A 
ATOM     26  C   UNL     1       5.033  -2.151  -0.117  0.00  0.00    +0.002 A 
ATOM     27  C   UNL     1       3.951  -2.784   0.463  0.00  0.00    +0.023 A 
ATOM     28  C   UNL     1       3.373  -2.257   1.610  0.00  0.00    +0.035 A 
ATOM     29  C   UNL     1       3.888  -1.096   2.173  0.00  0.00    +0.026 A 
ENDBRANCH  17  28
ENDBRANCH  11  20
ENDBRANCH   1  14
BRANCH   9  30
ATOM     30  C   UNL     1       1.421 -14.913   4.880  0.00  0.00    -0.015 A 
ATOM     31  C   UNL     1       0.217 -15.486   4.470  0.00  0.00    +0.008 A 
ATOM     32  C   UNL     1       0.097 -16.859   4.379  0.00  0.00    +0.001 A 
ATOM     33  C   UNL     1       1.167 -17.674   4.693  0.00  0.00    +0.013 A 
ATOM     34  C   UNL     1       2.377 -17.113   5.105  0.00  0.00    +0.037 A 
ATOM     35  C   UNL     1       2.505 -15.728   5.193  0.00  0.00    +0.021 A 
BRANCH  34  36
ATOM     36  C   UNL     1       3.522 -17.986   5.442  0.00  0.00    +0.244 C 
ATOM     37  O   UNL     1       4.575 -17.496   5.801  0.00  0.00    -0.270 OA
ATOM     38  N   UNL     1       3.398 -19.325   5.352  0.00  0.00    -0.314 N 
ATOM     39  C   UNL     1       4.532 -20.190   5.686  0.00  0.00    +0.128 C 
ATOM     40  H   UNL     1       2.558 -19.716   5.066  0.00  0.00    +0.149 HD
ENDBRANCH  34  36
ENDBRANCH   9  30
BRANCH   6  41
ATOM     41  N   UNL     1       1.969  -9.348   5.381  0.00  0.00    -0.344 N 
ATOM     42  H   UNL     1       1.384  -8.736   4.906  0.00  0.00    +0.144 HD
ATOM     43  H   UNL     1       2.658  -9.002   5.969  0.00  0.00    +0.144 HD
ENDBRANCH   6  41
TORSDOF 6
