REMARK  Name = CHEMBL498214
REMARK  4 active torsions:
REMARK  status: ('A' for Active; 'I' for Inactive)
REMARK    1  A    between atoms: C_1  and  N_2
REMARK    2  A    between atoms: C_8  and  C_10
REMARK    3  A    between atoms: C_17  and  C_20
REMARK    4  A    between atoms: C_21  and  N_32
REMARK                            x       y       z     vdW  Elec       q    Type
REMARK                         _______ _______ _______ _____ _____    ______ ____
ROOT
ATOM      1  C   UNL     1      -0.039  -4.350   2.527  0.00  0.00    +0.039 A 
ATOM      2  C   UNL     1       1.244  -3.857   2.798  0.00  0.00    +0.015 A 
ATOM      3  C   UNL     1       2.030  -4.454   3.742  0.00  0.00    +0.028 A 
ATOM      4  C   UNL     1       1.562  -5.559   4.443  0.00  0.00    +0.067 A 
ATOM      5  C   UNL     1       0.275  -6.068   4.184  0.00  0.00    +0.090 A 
ATOM      6  C   UNL     1      -0.527  -5.451   3.223  0.00  0.00    +0.043 A 
ATOM      7  N   UNL     1       0.091  -7.133   5.005  0.00  0.00    -0.227 NA
ATOM      8  C   UNL     1       1.163  -7.310   5.741  0.00  0.00    +0.146 A 
ATOM      9  N   UNL     1       2.101  -6.360   5.429  0.00  0.00    -0.338 N 
ATOM     10  H   UNL     1       2.981  -6.268   5.827  0.00  0.00    +0.167 HD
ENDROOT
BRANCH   8  11
ATOM     11  C   UNL     1       1.333  -8.370   6.749  0.00  0.00    +0.103 A 
ATOM     12  C   UNL     1       0.362  -9.363   6.895  0.00  0.00    +0.050 A 
ATOM     13  C   UNL     1       0.578 -10.397   7.915  0.00  0.00    +0.020 A 
ATOM     14  C   UNL     1      -0.354 -11.420   8.111  0.00  0.00    +0.012 A 
ATOM     15  C   UNL     1      -0.127 -12.370   9.067  0.00  0.00    +0.001 A 
ATOM     16  C   UNL     1       1.022 -12.327   9.844  0.00  0.00    +0.002 A 
ATOM     17  C   UNL     1       1.954 -11.327   9.666  0.00  0.00    +0.026 A 
ATOM     18  C   UNL     1       1.744 -10.350   8.699  0.00  0.00    +0.051 A 
ATOM     19  N   UNL     1       2.666  -9.341   8.505  0.00  0.00    -0.321 N 
ATOM     20  H   UNL     1       3.466  -9.319   9.052  0.00  0.00    +0.169 HD
ATOM     21  C   UNL     1       2.484  -8.391   7.573  0.00  0.00    +0.262 A 
ATOM     22  O   UNL     1       3.329  -7.523   7.436  0.00  0.00    -0.267 OA
BRANCH  12  23
ATOM     23  N   UNL     1      -0.763  -9.371   6.107  0.00  0.00    -0.357 N 
ATOM     24  H   UNL     1      -0.934  -8.636   5.497  0.00  0.00    +0.142 HD
ATOM     25  H   UNL     1      -1.387 -10.112   6.161  0.00  0.00    +0.142 HD
ENDBRANCH  12  23
ENDBRANCH   8  11
BRANCH   1  33
ATOM     26  C   UNL     1       0.759  -4.212  -3.643  0.00  0.00    +0.105 C 
ATOM     27  N   UNL     1       0.499  -3.608  -2.330  0.00  0.00    -0.302 NA
ATOM     28  C   UNL     1       1.242  -4.306  -1.273  0.00  0.00    +0.103 C 
ATOM     29  C   UNL     1       1.088  -3.541   0.046  0.00  0.00    +0.123 C 
ATOM     30  N   UNL     1      -0.346  -3.354   0.313  0.00  0.00    -0.295 N 
ATOM     31  C   UNL     1      -1.184  -2.784  -0.753  0.00  0.00    +0.123 C 
ATOM     32  C   UNL     1      -0.941  -3.580  -2.040  0.00  0.00    +0.103 C 
ATOM     33  C   UNL     1      -0.878  -3.694   1.504  0.00  0.00    +0.247 C 
ATOM     34  O   UNL     1      -2.049  -3.462   1.735  0.00  0.00    -0.270 OA
ENDBRANCH   1  33
TORSDOF 3
