REMARK  Name = CHEMBL231370
REMARK  8 active torsions:
REMARK  status: ('A' for Active; 'I' for Inactive)
REMARK    1  A    between atoms: C_1  and  N_2
REMARK    2  A    between atoms: C_6  and  C_8
REMARK    3  A    between atoms: C_8  and  O_9
REMARK    4  A    between atoms: O_9  and  C_10
REMARK    5  A    between atoms: C_12  and  N_20
REMARK    6  A    between atoms: C_15  and  C_16
REMARK    7  A    between atoms: C_26  and  O_30
REMARK    8  A    between atoms: O_30  and  C_31
REMARK                            x       y       z     vdW  Elec       q    Type
REMARK                         _______ _______ _______ _____ _____    ______ ____
ROOT
ATOM      1  N   UNL     1       3.008   4.058   4.876  0.00  0.00    -0.285 N 
ATOM      2  C   UNL     1       4.070   3.568   4.141  0.00  0.00    +0.198 A 
ATOM      3  N   UNL     1       4.011   2.547   3.323  0.00  0.00    -0.214 NA
ATOM      4  C   UNL     1       5.234   2.338   2.766  0.00  0.00    +0.091 A 
ATOM      5  C   UNL     1       5.722   1.404   1.848  0.00  0.00    +0.033 A 
ATOM      6  C   UNL     1       7.043   1.445   1.466  0.00  0.00    +0.048 A 
ATOM      7  C   UNL     1       7.899   2.411   1.988  0.00  0.00    +0.131 A 
ATOM      8  C   UNL     1       7.429   3.341   2.899  0.00  0.00    +0.074 A 
ATOM      9  C   UNL     1       6.100   3.311   3.291  0.00  0.00    +0.071 A 
ATOM     10  N   UNL     1       5.337   4.081   4.154  0.00  0.00    -0.326 N 
ATOM     11  H   UNL     1       3.143   4.796   5.490  0.00  0.00    +0.155 HD
ATOM     12  H   UNL     1       5.644   4.840   4.673  0.00  0.00    +0.169 HD
ENDROOT
BRANCH   1  15
ATOM     13  C   UNL     1       0.351   1.604   4.204  0.00  0.00    +0.134 A 
ATOM     14  C   UNL     1       1.611   2.164   4.342  0.00  0.00    +0.069 A 
ATOM     15  C   UNL     1       1.739   3.489   4.735  0.00  0.00    +0.037 A 
ATOM     16  C   UNL     1       0.604   4.249   4.989  0.00  0.00    +0.024 A 
ATOM     17  C   UNL     1      -0.650   3.687   4.851  0.00  0.00    +0.018 A 
ATOM     18  C   UNL     1      -0.779   2.369   4.453  0.00  0.00    +0.096 A 
BRANCH  18  19
ATOM     19  C   UNL     1      -2.150   1.762   4.296  0.00  0.00    +0.421 C 
ATOM     20  F   UNL     1      -3.122   2.720   4.601  0.00  0.00    -0.166 F 
ATOM     21  F   UNL     1      -2.319   1.328   2.977  0.00  0.00    -0.166 F 
ATOM     22  F   UNL     1      -2.279   0.673   5.166  0.00  0.00    -0.166 F 
ENDBRANCH  18  19
BRANCH  13  23
ATOM     23  O   UNL     1       0.222   0.307   3.818  0.00  0.00    -0.493 OA
BRANCH  23  24
ATOM     24  C   UNL     1       1.428  -0.421   3.578  0.00  0.00    +0.214 C 
BRANCH  24  30
ATOM     25  C   UNL     1       3.465  -1.661   2.861  0.00  0.00    -0.096 C 
ATOM     26  N   UNL     1       2.306  -2.553   2.720  0.00  0.00    +0.382 N 
ATOM     27  C   UNL     1       2.144  -2.939   1.302  0.00  0.00    -0.079 C 
ATOM     28  C   UNL     1       0.613  -3.010   1.083  0.00  0.00    -0.020 C 
ATOM     29  C   UNL     1       0.116  -1.827   1.956  0.00  0.00    -0.014 C 
ATOM     30  C   UNL     1       1.085  -1.852   3.158  0.00  0.00    -0.031 C 
ATOM     31  H   UNL     1       2.442  -3.380   3.282  0.00  0.00    -0.082 HD
ENDBRANCH  24  30
ENDBRANCH  23  24
ENDBRANCH  13  23
ENDBRANCH   1  15
BRANCH   7  32
ATOM     32  O   UNL     1       9.202   2.440   1.602  0.00  0.00    -0.455 OA
BRANCH  32  33
ATOM     33  C   UNL     1       9.496   2.980   0.394  0.00  0.00    +0.139 A 
ATOM     34  C   UNL     1       8.522   3.605  -0.364  0.00  0.00    +0.064 A 
ATOM     35  C   UNL     1       8.854   4.150  -1.598  0.00  0.00    +0.086 A 
ATOM     36  N   UNL     1      10.075   4.091  -2.075  0.00  0.00    -0.360 N 
ATOM     37  C   UNL     1      11.066   3.502  -1.396  0.00  0.00    +0.050 A 
ATOM     38  C   UNL     1      10.809   2.928  -0.127  0.00  0.00    +0.041 A 
ATOM     39  C   UNL     1      11.853   2.317   0.583  0.00  0.00    +0.013 A 
ATOM     40  C   UNL     1      13.105   2.287   0.046  0.00  0.00    +0.001 A 
ATOM     41  C   UNL     1      13.362   2.856  -1.199  0.00  0.00    +0.002 A 
ATOM     42  C   UNL     1      12.369   3.446  -1.919  0.00  0.00    +0.026 A 
ATOM     43  H   UNL     1      10.264   4.484  -2.942  0.00  0.00    +0.165 HD
ENDBRANCH  32  33
ENDBRANCH   7  32
TORSDOF 7
