REMARK  Name = CHEMBL390735
REMARK  7 active torsions:
REMARK  status: ('A' for Active; 'I' for Inactive)
REMARK    1  A    between atoms: C_1  and  N_2
REMARK    2  A    between atoms: C_8  and  C_10
REMARK    3  A    between atoms: C_22  and  C_23
REMARK    4  A    between atoms: C_25  and  C_28
REMARK    5  A    between atoms: C_29  and  C_30
REMARK    6  A    between atoms: C_30  and  O_31
REMARK    7  A    between atoms: O_31  and  C_32
REMARK                            x       y       z     vdW  Elec       q    Type
REMARK                         _______ _______ _______ _____ _____    ______ ____
ROOT
ATOM      1  C   UNL     1      -0.073  -4.313   2.573  0.00  0.00    +0.037 A 
ATOM      2  C   UNL     1       1.193  -3.802   2.873  0.00  0.00    +0.014 A 
ATOM      3  C   UNL     1       1.973  -4.409   3.829  0.00  0.00    +0.011 A 
ATOM      4  C   UNL     1       1.504  -5.539   4.505  0.00  0.00    +0.006 A 
ATOM      5  C   UNL     1       0.242  -6.047   4.204  0.00  0.00    -0.033 A 
ATOM      6  C   UNL     1      -0.545  -5.439   3.252  0.00  0.00    +0.017 A 
ATOM      7  C   UNL     1       0.011  -7.255   5.080  0.00  0.00    +0.075 C 
ATOM      8  C   UNL     1       1.255  -7.407   5.920  0.00  0.00    +0.010 A 
ATOM      9  C   UNL     1       2.134  -6.372   5.560  0.00  0.00    +0.097 A 
ATOM     10  N   UNL     1       3.228  -6.494   6.289  0.00  0.00    -0.173 NA
ATOM     11  H   UNL     1       3.731  -7.925   7.772  0.00  0.00    +0.189 HD
ATOM     12  N   UNL     1       3.079  -7.604   7.130  0.00  0.00    -0.276 N 
ATOM     13  C   UNL     1       1.855  -8.154   6.887  0.00  0.00    +0.070 A 
ENDROOT
BRANCH   1  21
ATOM     14  C   UNL     1       0.610  -4.357  -3.615  0.00  0.00    +0.105 C 
ATOM     15  N   UNL     1       0.395  -3.714  -2.313  0.00  0.00    -0.302 NA
ATOM     16  C   UNL     1       1.134  -4.412  -1.252  0.00  0.00    +0.103 C 
ATOM     17  C   UNL     1       1.031  -3.611   0.050  0.00  0.00    +0.123 C 
ATOM     18  N   UNL     1      -0.391  -3.368   0.339  0.00  0.00    -0.295 N 
ATOM     19  C   UNL     1      -1.229  -2.796  -0.726  0.00  0.00    +0.123 C 
ATOM     20  C   UNL     1      -1.037  -3.629  -1.997  0.00  0.00    +0.103 C 
ATOM     21  C   UNL     1      -0.911  -3.662   1.546  0.00  0.00    +0.247 C 
ATOM     22  O   UNL     1      -2.071  -3.391   1.791  0.00  0.00    -0.270 OA
ENDBRANCH   1  21
BRANCH  13  23
ATOM     23  C   UNL     1       1.282  -9.346   7.554  0.00  0.00    +0.008 A 
ATOM     24  C   UNL     1       1.365  -9.494   8.931  0.00  0.00    +0.034 A 
ATOM     25  C   UNL     1       0.822 -10.612   9.505  0.00  0.00    +0.063 A 
ATOM     26  S   UNL     1       0.175 -11.486   8.090  0.00  0.00    -0.088 S 
ATOM     27  C   UNL     1       0.655 -10.322   6.825  0.00  0.00    +0.056 A 
BRANCH  25  28
ATOM     28  C   UNL     1       0.782 -10.984  10.887  0.00  0.00    -0.056 C 
ATOM     29  C   UNL     1       0.750 -11.290  12.020  0.00  0.00    -0.056 C 
BRANCH  29  30
ATOM     30  C   UNL     1       0.710 -11.672  13.441  0.00  0.00    +0.318 C 
BRANCH  30  31
ATOM     31  O   UNL     1       0.040 -12.927  13.577  0.00  0.00    -0.480 OA
BRANCH  31  32
ATOM     32  C   UNL     1      -0.084 -13.427  14.835  0.00  0.00    +0.122 A 
ATOM     33  C   UNL     1       0.424 -12.722  15.916  0.00  0.00    +0.046 A 
ATOM     34  C   UNL     1       0.297 -13.232  17.193  0.00  0.00    +0.004 A 
ATOM     35  C   UNL     1      -0.337 -14.444  17.395  0.00  0.00    +0.000 A 
ATOM     36  C   UNL     1      -0.844 -15.149  16.319  0.00  0.00    +0.004 A 
ATOM     37  C   UNL     1      -0.724 -14.641  15.040  0.00  0.00    +0.046 A 
ENDBRANCH  31  32
ENDBRANCH  30  31
ENDBRANCH  29  30
ENDBRANCH  25  28
ENDBRANCH  13  23
TORSDOF 6
