REMARK  Name = CHEMBL333021
REMARK  6 active torsions:
REMARK  status: ('A' for Active; 'I' for Inactive)
REMARK    1  A    between atoms: C_3  and  O_21
REMARK    2  A    between atoms: C_6  and  C_7
REMARK    3  A    between atoms: C_11  and  C_16
REMARK    4  A    between atoms: O_21  and  C_22
REMARK    5  A    between atoms: C_22  and  C_23
REMARK    6  A    between atoms: C_23  and  N_24
REMARK                            x       y       z     vdW  Elec       q    Type
REMARK                         _______ _______ _______ _____ _____    ______ ____
ROOT
ATOM      1  C   UNL     1       0.044   1.058   0.048  0.00  0.00    +0.012 A 
ATOM      2  C   UNL     1       1.188   1.827   0.006  0.00  0.00    +0.046 A 
ATOM      3  C   UNL     1       2.436   1.218   0.026  0.00  0.00    +0.120 A 
ATOM      4  C   UNL     1       2.536  -0.165   0.089  0.00  0.00    +0.046 A 
ATOM      5  C   UNL     1       1.395  -0.939   0.132  0.00  0.00    +0.012 A 
ATOM      6  C   UNL     1       0.141  -0.331   0.111  0.00  0.00    -0.015 A 
ENDROOT
BRANCH   6   7
ATOM      7  C   UNL     1      -1.088  -1.161   0.157  0.00  0.00    +0.018 A 
ATOM      8  C   UNL     1      -1.965  -1.080   1.261  0.00  0.00    +0.123 A 
ATOM      9  N   UNL     1      -3.049  -1.816   1.295  0.00  0.00    -0.235 NA
ATOM     10  C   UNL     1      -3.347  -2.653   0.295  0.00  0.00    +0.163 A 
ATOM     11  C   UNL     1      -4.415  -3.532   0.086  0.00  0.00    +0.046 A 
ATOM     12  C   UNL     1      -4.204  -4.158  -1.145  0.00  0.00    +0.145 A 
ATOM     13  N   UNL     1      -3.088  -3.705  -1.666  0.00  0.00    -0.173 NA
ATOM     14  N   UNL     1      -2.524  -2.764  -0.798  0.00  0.00    -0.221 N 
ATOM     15  C   UNL     1      -1.388  -2.009  -0.872  0.00  0.00    +0.124 A 
BRANCH  11  16
ATOM     16  C   UNL     1      -5.561  -3.758   1.002  0.00  0.00    -0.006 A 
ATOM     17  C   UNL     1      -6.868  -3.717   0.530  0.00  0.00    +0.016 A 
ATOM     18  C   UNL     1      -7.886  -3.928   1.396  0.00  0.00    +0.046 A 
ATOM     19  S   UNL     1      -7.023  -4.197   2.935  0.00  0.00    -0.104 S 
ATOM     20  C   UNL     1      -5.354  -4.016   2.328  0.00  0.00    +0.053 A 
ENDBRANCH  11  16
ENDBRANCH   6   7
BRANCH   3  21
ATOM     21  O   UNL     1       3.562   1.979  -0.015  0.00  0.00    -0.494 OA
BRANCH  21  22
ATOM     22  C   UNL     1       4.812   1.288   0.009  0.00  0.00    +0.210 C 
BRANCH  22  23
ATOM     23  C   UNL     1       5.956   2.302  -0.044  0.00  0.00    -0.037 C 
BRANCH  23  24
ATOM     24  N   UNL     1       5.922   3.143   1.160  0.00  0.00    +0.382 N 
ATOM     25  C   UNL     1       6.919   4.213   1.036  0.00  0.00    -0.079 C 
ATOM     26  C   UNL     1       6.832   5.139   2.252  0.00  0.00    -0.019 C 
ATOM     27  C   UNL     1       7.104   4.330   3.523  0.00  0.00    -0.004 C 
ATOM     28  C   UNL     1       6.105   3.172   3.603  0.00  0.00    -0.019 C 
ATOM     29  C   UNL     1       6.219   2.319   2.338  0.00  0.00    -0.079 C 
ATOM     30  H   UNL     1       5.005   3.550   1.259  0.00  0.00    -0.082 HD
ENDBRANCH  23  24
ENDBRANCH  22  23
ENDBRANCH  21  22
ENDBRANCH   3  21
TORSDOF 6
