REMARK  Name = CHEMBL431996
REMARK  5 active torsions:
REMARK  status: ('A' for Active; 'I' for Inactive)
REMARK    1  A    between atoms: C_6  and  C_7
REMARK    2  A    between atoms: C_11  and  C_12
REMARK    3  A    between atoms: C_13  and  C_22
REMARK    4  A    between atoms: C_22  and  C_23
REMARK    5  A    between atoms: C_23  and  C_24
REMARK                            x       y       z     vdW  Elec       q    Type
REMARK                         _______ _______ _______ _____ _____    ______ ____
ROOT
ATOM      1  C   UNL     1      -0.028   0.982   1.448  0.00  0.00    +0.017 A 
ATOM      2  C   UNL     1       1.129   1.454   2.022  0.00  0.00    +0.025 A 
ATOM      3  C   UNL     1       2.355   0.864   1.721  0.00  0.00    +0.042 A 
ATOM      4  C   UNL     1       2.397  -0.218   0.825  0.00  0.00    +0.009 A 
ATOM      5  C   UNL     1       1.233  -0.697   0.245  0.00  0.00    +0.025 A 
ATOM      6  C   UNL     1       0.010  -0.097   0.555  0.00  0.00    +0.064 A 
ATOM      7  C   UNL     1       3.820  -0.613   0.717  0.00  0.00    +0.048 C 
ATOM      8  C   UNL     1       4.355  -1.630  -0.049  0.00  0.00    +0.039 C 
ATOM      9  C   UNL     1       4.539   0.313   1.602  0.00  0.00    +0.249 C 
ATOM     10  O   UNL     1       5.741   0.326   1.799  0.00  0.00    -0.270 OA
ATOM     11  N   UNL     1       3.640   1.144   2.155  0.00  0.00    -0.281 N 
ATOM     12  H   UNL     1       3.862   1.852   2.779  0.00  0.00    +0.155 HD
ENDROOT
BRANCH   8  13
ATOM     13  C   UNL     1       5.754  -1.771  -0.156  0.00  0.00    +0.044 A 
ATOM     14  C   UNL     1       6.452  -2.965  -0.280  0.00  0.00    -0.019 A 
ATOM     15  C   UNL     1       7.801  -2.639  -0.355  0.00  0.00    -0.023 A 
ATOM     16  C   UNL     1       7.916  -1.285  -0.278  0.00  0.00    +0.020 A 
ATOM     17  N   UNL     1       6.679  -0.748  -0.164  0.00  0.00    -0.358 N 
ATOM     18  H   UNL     1       6.477   0.199  -0.096  0.00  0.00    +0.166 HD
ATOM     19  C   UNL     1       9.234  -0.548  -0.321  0.00  0.00    +0.053 C 
ATOM     20  C   UNL     1      10.359  -1.552  -0.042  0.00  0.00    +0.006 C 
ATOM     21  C   UNL     1      10.192  -2.774  -0.950  0.00  0.00    +0.005 C 
ATOM     22  C   UNL     1       8.970  -3.583  -0.499  0.00  0.00    +0.037 C 
BRANCH  14  23
ATOM     23  C   UNL     1       5.859  -4.350  -0.325  0.00  0.00    +0.049 C 
BRANCH  23  24
ATOM     24  C   UNL     1       5.558  -4.729  -1.776  0.00  0.00    +0.130 C 
BRANCH  24  25
ATOM     25  C   UNL     1       4.965  -6.114  -1.820  0.00  0.00    +0.356 C 
ATOM     26  O   UNL     1       4.799  -6.739  -0.787  0.00  0.00    -0.246 OA
ATOM     27  O   UNL     1       4.652  -6.609  -2.890  0.00  0.00    -0.246 OA
ENDBRANCH  24  25
ENDBRANCH  23  24
ENDBRANCH  14  23
ENDBRANCH   8  13
BRANCH   6  28
ATOM     28  C   UNL     1      -1.234  -0.596  -0.054  0.00  0.00    +0.387 C 
ATOM     29  O   UNL     1      -2.304  -0.070   0.219  0.00  0.00    -0.241 OA
ATOM     30  O   UNL     1      -1.198  -1.538  -0.834  0.00  0.00    -0.241 OA
ENDBRANCH   6  28
TORSDOF 5
