REMARK  Name = CHEMBL117052
REMARK  3 active torsions:
REMARK  status: ('A' for Active; 'I' for Inactive)
REMARK    1  A    between atoms: C_8  and  C_12
REMARK    2  A    between atoms: C_16  and  C_22
REMARK    3  A    between atoms: C_27  and  N_29
REMARK                            x       y       z     vdW  Elec       q    Type
REMARK                         _______ _______ _______ _____ _____    ______ ____
ROOT
ATOM      1  C   UNL     1       2.538  -4.225  -0.051  0.00  0.00    +0.053 A 
ATOM      2  C   UNL     1       3.013  -4.993   0.962  0.00  0.00    +0.036 A 
ATOM      3  C   UNL     1       2.901  -6.385   0.529  0.00  0.00    +0.001 A 
ATOM      4  C   UNL     1       3.220  -7.608   1.119  0.00  0.00    +0.023 A 
ATOM      5  C   UNL     1       2.982  -8.787   0.419  0.00  0.00    +0.038 A 
ATOM      6  C   UNL     1       2.427  -8.740  -0.868  0.00  0.00    +0.015 A 
ATOM      7  C   UNL     1       2.115  -7.546  -1.448  0.00  0.00    +0.027 A 
ATOM      8  C   UNL     1       2.344  -6.352  -0.766  0.00  0.00    +0.047 A 
ATOM      9  N   UNL     1       2.129  -5.033  -1.088  0.00  0.00    -0.354 N 
ATOM     10  H   UNL     1       1.748  -4.718  -1.923  0.00  0.00    +0.166 HD
ENDROOT
BRANCH   1  18
ATOM     11  C   UNL     1      -0.056   1.342  -0.070  0.00  0.00    +0.001 A 
ATOM     12  C   UNL     1       1.124   2.072  -0.032  0.00  0.00    +0.002 A 
ATOM     13  C   UNL     1       2.345   1.432  -0.006  0.00  0.00    +0.026 A 
ATOM     14  C   UNL     1       2.400   0.041  -0.017  0.00  0.00    +0.049 A 
ATOM     15  C   UNL     1       1.202  -0.697  -0.055  0.00  0.00    -0.001 A 
ATOM     16  C   UNL     1      -0.028  -0.023  -0.082  0.00  0.00    +0.010 A 
ATOM     17  C   UNL     1       1.242  -2.114  -0.067  0.00  0.00    +0.025 A 
ATOM     18  C   UNL     1       2.464  -2.751  -0.040  0.00  0.00    +0.063 A 
ATOM     19  C   UNL     1       3.692  -1.948  -0.001  0.00  0.00    +0.258 A 
ATOM     20  N   UNL     1       3.620  -0.603   0.010  0.00  0.00    -0.322 N 
ATOM     21  O   UNL     1       4.778  -2.498   0.023  0.00  0.00    -0.267 OA
ATOM     22  H   UNL     1       4.437  -0.081   0.037  0.00  0.00    +0.169 HD
ENDBRANCH   1  18
BRANCH   5  23
ATOM     23  C   UNL     1       3.315 -10.088   1.032  0.00  0.00    +0.247 C 
ATOM     24  O   UNL     1       2.986 -11.121   0.482  0.00  0.00    -0.270 OA
ATOM     25  N   UNL     1       3.983 -10.131   2.202  0.00  0.00    -0.299 N 
ATOM     26  C   UNL     1       4.330  -8.969   3.033  0.00  0.00    +0.106 C 
ATOM     27  C   UNL     1       5.064  -9.502   4.282  0.00  0.00    +0.004 C 
ATOM     28  C   UNL     1       4.590 -10.978   4.360  0.00  0.00    -0.056 C 
ATOM     29  C   UNL     1       4.481 -11.351   2.863  0.00  0.00    +0.092 C 
BRANCH  28  30
ATOM     30  N   UNL     1       5.585 -11.815   5.043  0.00  0.00    +0.381 N 
ATOM     31  H   UNL     1       5.727 -11.471   5.981  0.00  0.00    -0.090 HD
ATOM     32  H   UNL     1       5.254 -12.768   5.081  0.00  0.00    -0.090 HD
ATOM     33  H   UNL     1       6.457 -11.782   4.537  0.00  0.00    -0.090 HD
ENDBRANCH  28  30
ENDBRANCH   5  23
TORSDOF 3
