REMARK  Name = CHEMBL517469
REMARK  7 active torsions:
REMARK  status: ('A' for Active; 'I' for Inactive)
REMARK    1  A    between atoms: C_1  and  C_2
REMARK    2  A    between atoms: C_2  and  N_3
REMARK    3  A    between atoms: C_5  and  C_8
REMARK    4  A    between atoms: C_13  and  O_17
REMARK    5  A    between atoms: O_17  and  C_18
REMARK    6  A    between atoms: C_21  and  N_25
REMARK    7  A    between atoms: N_31  and  C_34
REMARK                            x       y       z     vdW  Elec       q    Type
REMARK                         _______ _______ _______ _____ _____    ______ ____
ROOT
ATOM      1  C   UNL     1      -7.710  -2.638   6.665  0.00  0.00    +0.164 A 
ATOM      2  C   UNL     1      -9.052  -2.723   6.327  0.00  0.00    +0.051 A 
ATOM      3  C   UNL     1      -9.975  -3.150   7.262  0.00  0.00    +0.027 A 
ATOM      4  C   UNL     1      -9.560  -3.493   8.542  0.00  0.00    +0.038 A 
ATOM      5  C   UNL     1      -8.216  -3.408   8.882  0.00  0.00    +0.065 A 
ATOM      6  C   UNL     1      -7.292  -2.987   7.944  0.00  0.00    +0.167 A 
ATOM      7  F   UNL     1      -5.984  -2.909   8.271  0.00  0.00    -0.202 F 
ENDROOT
BRANCH   4   8
ATOM      8  N   UNL     1     -10.496  -3.924   9.491  0.00  0.00    -0.269 N 
ATOM      9  C   UNL     1     -10.289  -3.684  10.800  0.00  0.00    +0.314 C 
ATOM     10  O   UNL     1      -9.224  -3.232  11.174  0.00  0.00    -0.252 OA
ATOM     11  N   UNL     1     -11.262  -3.944  11.696  0.00  0.00    -0.208 N 
ATOM     12  C   UNL     1     -12.546  -4.595  11.394  0.00  0.00    +0.139 C 
ATOM     13  C   UNL     1     -13.265  -4.643  12.756  0.00  0.00    +0.135 C 
ATOM     14  N   UNL     1     -12.310  -4.014  13.681  0.00  0.00    -0.251 N 
ATOM     15  C   UNL     1     -11.211  -3.657  13.003  0.00  0.00    +0.317 C 
ATOM     16  O   UNL     1     -10.256  -3.118  13.526  0.00  0.00    -0.252 OA
ATOM     17  H   UNL     1     -11.294  -4.396   9.204  0.00  0.00    +0.156 HD
BRANCH  14  18
ATOM     18  C   UNL     1     -12.515  -3.824  15.053  0.00  0.00    +0.073 A 
ATOM     19  C   UNL     1     -12.119  -4.800  15.957  0.00  0.00    +0.026 A 
ATOM     20  C   UNL     1     -12.322  -4.610  17.310  0.00  0.00    +0.002 A 
ATOM     21  C   UNL     1     -12.919  -3.449  17.766  0.00  0.00    +0.003 A 
ATOM     22  C   UNL     1     -13.315  -2.473  16.869  0.00  0.00    +0.040 A 
ATOM     23  C   UNL     1     -13.109  -2.654  15.514  0.00  0.00    +0.145 A 
ATOM     24  F   UNL     1     -13.490  -1.699  14.638  0.00  0.00    -0.204 F 
ENDBRANCH  14  18
ENDBRANCH   4   8
BRANCH   1  25
ATOM     25  O   UNL     1      -6.802  -2.218   5.744  0.00  0.00    -0.452 OA
BRANCH  25  31
ATOM     26  C   UNL     1      -3.438  -1.959   2.245  0.00  0.00    +0.040 A 
ATOM     27  C   UNL     1      -3.343  -3.256   2.635  0.00  0.00    +0.046 A 
ATOM     28  C   UNL     1      -4.175  -3.745   3.660  0.00  0.00    +0.082 A 
ATOM     29  C   UNL     1      -5.070  -2.803   4.212  0.00  0.00    +0.080 A 
ATOM     30  S   UNL     1      -4.718  -1.316   3.310  0.00  0.00    -0.082 S 
ATOM     31  C   UNL     1      -5.949  -3.138   5.225  0.00  0.00    +0.146 A 
ATOM     32  C   UNL     1      -5.931  -4.449   5.698  0.00  0.00    +0.067 A 
ATOM     33  C   UNL     1      -5.038  -5.342   5.130  0.00  0.00    +0.115 A 
ATOM     34  N   UNL     1      -4.216  -4.997   4.171  0.00  0.00    -0.254 NA
BRANCH  26  37
ATOM     35  N   UNL     1      -1.898   0.289  -0.149  0.00  0.00    -0.338 N 
ATOM     36  C   UNL     1      -2.799   0.058   0.852  0.00  0.00    +0.113 A 
ATOM     37  C   UNL     1      -2.667  -1.252   1.200  0.00  0.00    +0.071 A 
ATOM     38  N   UNL     1      -1.704  -1.788   0.420  0.00  0.00    -0.345 N 
ATOM     39  C   UNL     1      -1.249  -0.872  -0.387  0.00  0.00    +0.174 A 
ATOM     40  H   UNL     1      -1.402  -2.708   0.454  0.00  0.00    +0.167 HD
BRANCH  35  42
ATOM     41  C   UNL     1      -2.604   1.646  -2.057  0.00  0.00    +0.027 C 
ATOM     42  C   UNL     1      -1.680   1.562  -0.841  0.00  0.00    +0.119 C 
ENDBRANCH  35  42
ENDBRANCH  26  37
ENDBRANCH  25  31
ENDBRANCH   1  25
TORSDOF 6
