REMARK  Name = CHEMBL409349
REMARK  5 active torsions:
REMARK  status: ('A' for Active; 'I' for Inactive)
REMARK    1  A    between atoms: C_1  and  C_2
REMARK    2  A    between atoms: C_4  and  C_28
REMARK    3  A    between atoms: C_6  and  N_8
REMARK    4  A    between atoms: N_11  and  C_12
REMARK    5  A    between atoms: C_15  and  C_18
REMARK                            x       y       z     vdW  Elec       q    Type
REMARK                         _______ _______ _______ _____ _____    ______ ____
ROOT
ATOM      1  C   UNL     1       0.107  -2.436   6.109  0.00  0.00    +0.035 A 
ATOM      2  C   UNL     1      -0.060  -1.056   6.103  0.00  0.00    +0.024 A 
ATOM      3  C   UNL     1      -0.053  -0.355   7.290  0.00  0.00    +0.010 A 
ATOM      4  C   UNL     1       0.122  -1.032   8.497  0.00  0.00    -0.017 A 
ATOM      5  C   UNL     1       0.289  -2.417   8.500  0.00  0.00    +0.010 A 
ATOM      6  C   UNL     1       0.276  -3.114   7.311  0.00  0.00    +0.024 A 
ENDROOT
BRANCH   4   7
ATOM      7  C   UNL     1       0.130  -0.282   9.774  0.00  0.00    -0.004 A 
ATOM      8  C   UNL     1      -0.951   0.519  10.124  0.00  0.00    +0.009 A 
ATOM      9  C   UNL     1      -0.941   1.219  11.318  0.00  0.00    +0.004 A 
ATOM     10  C   UNL     1       0.137   1.135  12.175  0.00  0.00    +0.050 A 
ATOM     11  C   UNL     1       1.230   0.343  11.849  0.00  0.00    +0.170 A 
ATOM     12  C   UNL     1       1.229  -0.377  10.645  0.00  0.00    +0.070 A 
ATOM     13  C   UNL     1       2.500  -1.111  10.597  0.00  0.00    +0.167 A 
ATOM     14  N   UNL     1       3.153  -0.827  11.691  0.00  0.00    -0.062 NA
ATOM     15  O   UNL     1       2.396   0.074  12.473  0.00  0.00    -0.353 OA
ATOM     16  N   UNL     1       2.927  -1.952   9.578  0.00  0.00    -0.340 N 
ATOM     17  H   UNL     1       2.429  -1.999   8.748  0.00  0.00    +0.144 HD
ATOM     18  H   UNL     1       3.724  -2.492   9.697  0.00  0.00    +0.144 HD
ENDBRANCH   4   7
BRANCH   1  22
ATOM     19  N   UNL     1       0.498  -3.220   2.605  0.00  0.00    -0.269 N 
ATOM     20  C   UNL     1       0.597  -2.579   3.786  0.00  0.00    +0.308 C 
ATOM     21  O   UNL     1       1.136  -1.490   3.844  0.00  0.00    -0.252 OA
ATOM     22  N   UNL     1       0.099  -3.145   4.904  0.00  0.00    -0.269 N 
ATOM     23  H   UNL     1       0.004  -4.053   2.545  0.00  0.00    +0.156 HD
ATOM     24  H   UNL     1      -0.265  -4.043   4.871  0.00  0.00    +0.156 HD
BRANCH  19  30
ATOM     25  C   UNL     1       0.489  -2.507  -2.260  0.00  0.00    +0.044 C 
ATOM     26  C   UNL     1       1.125  -2.323  -0.906  0.00  0.00    -0.048 A 
ATOM     27  C   UNL     1       2.312  -1.624  -0.789  0.00  0.00    +0.006 A 
ATOM     28  C   UNL     1       2.899  -1.454   0.451  0.00  0.00    -0.048 A 
ATOM     29  C   UNL     1       2.300  -1.981   1.578  0.00  0.00    +0.026 A 
ATOM     30  C   UNL     1       1.107  -2.684   1.465  0.00  0.00    +0.035 A 
ATOM     31  C   UNL     1       0.518  -2.849   0.218  0.00  0.00    +0.026 A 
ATOM     32  C   UNL     1       4.193  -0.692   0.574  0.00  0.00    +0.044 C 
ENDBRANCH  19  30
ENDBRANCH   1  22
TORSDOF 3
