REMARK  Name = CHEMBL495299
REMARK  7 active torsions:
REMARK  status: ('A' for Active; 'I' for Inactive)
REMARK    1  A    between atoms: C_1  and  O_2
REMARK    2  A    between atoms: O_2  and  C_3
REMARK    3  A    between atoms: C_6  and  C_15
REMARK    4  A    between atoms: C_12  and  O_13
REMARK    5  A    between atoms: O_13  and  C_14
REMARK    6  A    between atoms: C_15  and  N_16
REMARK    7  A    between atoms: C_24  and  C_25
REMARK                            x       y       z     vdW  Elec       q    Type
REMARK                         _______ _______ _______ _____ _____    ______ ____
ROOT
ATOM      1  N   UNL     1      -4.567   2.165  -1.326  0.00  0.00    -0.294 NA
ATOM      2  C   UNL     1      -4.345   3.619  -1.332  0.00  0.00    +0.090 C 
ATOM      3  C   UNL     1      -3.757   4.014  -2.687  0.00  0.00    +0.051 C 
ATOM      4  C   UNL     1      -4.593   3.436  -3.799  0.00  0.00    -0.030 A 
ATOM      5  C   UNL     1      -5.484   2.412  -3.576  0.00  0.00    -0.029 A 
ATOM      6  C   UNL     1      -6.230   1.905  -4.632  0.00  0.00    +0.005 A 
ATOM      7  C   UNL     1      -6.091   2.421  -5.906  0.00  0.00    +0.001 A 
ATOM      8  C   UNL     1      -5.204   3.450  -6.141  0.00  0.00    +0.013 A 
ATOM      9  C   UNL     1      -4.448   3.964  -5.087  0.00  0.00    +0.041 A 
ATOM     10  C   UNL     1      -5.686   1.818  -2.207  0.00  0.00    +0.120 C 
ENDROOT
BRANCH   9  11
ATOM     11  C   UNL     1      -3.494   5.066  -5.331  0.00  0.00    +0.250 C 
ATOM     12  O   UNL     1      -2.836   5.514  -4.413  0.00  0.00    -0.270 OA
ATOM     13  N   UNL     1      -3.355   5.575  -6.571  0.00  0.00    -0.261 N 
ATOM     14  C   UNL     1      -2.462   6.607  -6.799  0.00  0.00    +0.166 A 
ATOM     15  N   UNL     1      -1.667   7.212  -5.947  0.00  0.00    -0.225 NA
ATOM     16  C   UNL     1      -0.839   8.215  -6.312  0.00  0.00    +0.080 A 
ATOM     17  C   UNL     1       0.060   8.945  -5.500  0.00  0.00    +0.029 A 
ATOM     18  C   UNL     1       0.835   9.941  -6.034  0.00  0.00    +0.002 A 
ATOM     19  C   UNL     1       0.769  10.268  -7.381  0.00  0.00    +0.001 A 
ATOM     20  C   UNL     1      -0.099   9.574  -8.204  0.00  0.00    +0.017 A 
ATOM     21  C   UNL     1      -0.879   8.575  -7.679  0.00  0.00    +0.041 A 
ATOM     22  S   UNL     1      -2.090   7.450  -8.331  0.00  0.00    -0.052 S 
ATOM     23  H   UNL     1      -3.880   5.217  -7.304  0.00  0.00    +0.157 HD
ENDBRANCH   9  11
BRANCH   1  24
ATOM     24  C   UNL     1      -4.799   1.673   0.039  0.00  0.00    +0.120 C 
BRANCH  24  28
ATOM     25  C   UNL     1      -1.201  -0.638   0.010  0.00  0.00    +0.162 A 
ATOM     26  C   UNL     1      -2.350   0.097   0.019  0.00  0.00    +0.059 A 
ATOM     27  C   UNL     1      -3.593  -0.558   0.027  0.00  0.00    +0.008 A 
ATOM     28  C   UNL     1      -4.800   0.166   0.036  0.00  0.00    -0.023 A 
ATOM     29  C   UNL     1      -5.972  -0.535   0.043  0.00  0.00    +0.025 A 
ATOM     30  C   UNL     1      -5.950  -1.928   0.041  0.00  0.00    +0.112 A 
ATOM     31  N   UNL     1      -4.824  -2.599   0.033  0.00  0.00    -0.255 NA
ATOM     32  C   UNL     1      -3.642  -1.975   0.026  0.00  0.00    +0.075 A 
ATOM     33  C   UNL     1      -2.440  -2.702   0.016  0.00  0.00    +0.077 A 
ATOM     34  C   UNL     1      -1.246  -2.040   0.003  0.00  0.00    +0.164 A 
BRANCH  25  36
ATOM     35  C   UNL     1      -0.017   1.425   0.010  0.00  0.00    +0.277 C 
ATOM     36  O   UNL     1       0.002  -0.004   0.002  0.00  0.00    -0.491 OA
ENDBRANCH  25  36
BRANCH  34  37
ATOM     37  O   UNL     1      -0.087  -2.748  -0.011  0.00  0.00    -0.491 OA
ATOM     38  C   UNL     1      -0.197  -4.173  -0.018  0.00  0.00    +0.277 C 
ENDBRANCH  34  37
ENDBRANCH  24  28
ENDBRANCH   1  24
TORSDOF 5
