REMARK  Name = CHEMBL501751
REMARK  6 active torsions:
REMARK  status: ('A' for Active; 'I' for Inactive)
REMARK    1  A    between atoms: C_4  and  C_7
REMARK    2  A    between atoms: C_7  and  N_21
REMARK    3  A    between atoms: C_12  and  N_18
REMARK    4  A    between atoms: N_21  and  C_22
REMARK    5  A    between atoms: C_25  and  C_28
REMARK    6  A    between atoms: C_28  and  N_29
REMARK                            x       y       z     vdW  Elec       q    Type
REMARK                         _______ _______ _______ _____ _____    ______ ____
ROOT
ATOM      1  C   UNL     1       3.713  -0.677  -0.311  0.00  0.00    +0.051 C 
ATOM      2  C   UNL     1       3.220  -1.567   0.634  0.00  0.00    +0.068 C 
ATOM      3  C   UNL     1       3.798  -1.870   1.961  0.00  0.00    +0.010 A 
ATOM      4  C   UNL     1       4.920  -1.416   2.646  0.00  0.00    +0.013 A 
ATOM      5  C   UNL     1       5.197  -1.907   3.906  0.00  0.00    +0.033 A 
ATOM      6  C   UNL     1       4.361  -2.848   4.485  0.00  0.00    +0.128 A 
ATOM      7  C   UNL     1       3.245  -3.306   3.813  0.00  0.00    +0.056 A 
ATOM      8  C   UNL     1       2.951  -2.823   2.545  0.00  0.00    +0.044 A 
ATOM      9  N   UNL     1       1.922  -3.095   1.653  0.00  0.00    -0.281 N 
ATOM     10  C   UNL     1       2.054  -2.369   0.530  0.00  0.00    +0.251 C 
ATOM     11  O   UNL     1       1.296  -2.396  -0.425  0.00  0.00    -0.270 OA
ATOM     12  H   UNL     1       1.201  -3.722   1.820  0.00  0.00    +0.155 HD
ENDROOT
BRANCH   1  16
ATOM     13  C   UNL     1       1.494   0.115  -3.842  0.00  0.00    +0.000 A 
ATOM     14  C   UNL     1       0.864   0.151  -2.610  0.00  0.00    +0.001 A 
ATOM     15  C   UNL     1       1.579  -0.105  -1.459  0.00  0.00    +0.010 A 
ATOM     16  C   UNL     1       2.942  -0.402  -1.538  0.00  0.00    -0.003 A 
ATOM     17  C   UNL     1       3.572  -0.437  -2.785  0.00  0.00    +0.010 A 
ATOM     18  C   UNL     1       2.844  -0.178  -3.928  0.00  0.00    +0.001 A 
ENDBRANCH   1  16
BRANCH   6  19
ATOM     19  N   UNL     1       4.668  -3.369   5.837  0.00  0.00    +0.056 N 
ATOM     20  O   UNL     1       5.644  -2.972   6.430  0.00  0.00    -0.126 OA
ATOM     21  O   UNL     1       3.942  -4.190   6.347  0.00  0.00    -0.126 OA
ENDBRANCH   6  19
BRANCH   1  22
ATOM     22  N   UNL     1       4.918  -0.053  -0.104  0.00  0.00    -0.313 N 
ATOM     23  H   UNL     1       5.723  -0.581   0.014  0.00  0.00    +0.152 HD
BRANCH  22  24
ATOM     24  C   UNL     1       4.984   1.342  -0.064  0.00  0.00    +0.031 A 
ATOM     25  C   UNL     1       3.817   2.095  -0.055  0.00  0.00    +0.023 A 
ATOM     26  C   UNL     1       3.886   3.473  -0.015  0.00  0.00    +0.003 A 
ATOM     27  C   UNL     1       5.116   4.105   0.015  0.00  0.00    -0.064 A 
ATOM     28  C   UNL     1       6.280   3.358   0.006  0.00  0.00    +0.003 A 
ATOM     29  C   UNL     1       6.218   1.979  -0.028  0.00  0.00    +0.023 A 
BRANCH  27  30
ATOM     30  C   UNL     1       5.188   5.609   0.058  0.00  0.00    -0.043 C 
BRANCH  30  31
ATOM     31  N   UNL     1       5.197   6.060   1.456  0.00  0.00    +0.382 N 
ATOM     32  C   UNL     1       3.922   5.705   2.091  0.00  0.00    -0.078 C 
ATOM     33  C   UNL     1       3.957   6.099   3.570  0.00  0.00    -0.019 C 
ATOM     34  C   UNL     1       4.184   7.609   3.684  0.00  0.00    -0.004 C 
ATOM     35  C   UNL     1       5.479   7.978   2.954  0.00  0.00    -0.019 C 
ATOM     36  C   UNL     1       5.387   7.514   1.499  0.00  0.00    -0.078 C 
ATOM     37  H   UNL     1       5.953   5.608   1.949  0.00  0.00    -0.081 HD
ENDBRANCH  30  31
ENDBRANCH  27  30
ENDBRANCH  22  24
ENDBRANCH   1  22
TORSDOF 6
