REMARK  Name = CHEMBL269915
REMARK  7 active torsions:
REMARK  status: ('A' for Active; 'I' for Inactive)
REMARK    1  A    between atoms: C_1  and  O_2
REMARK    2  A    between atoms: O_2  and  C_3
REMARK    3  A    between atoms: C_6  and  O_15
REMARK    4  A    between atoms: C_12  and  O_13
REMARK    5  A    between atoms: O_13  and  C_14
REMARK    6  A    between atoms: O_15  and  C_16
REMARK    7  A    between atoms: C_25  and  C_26
REMARK                            x       y       z     vdW  Elec       q    Type
REMARK                         _______ _______ _______ _____ _____    ______ ____
ROOT
ATOM      1  C   UNL     1       3.010   2.393  -5.076  0.00  0.00    +0.129 A 
ATOM      2  C   UNL     1       3.589   1.763  -6.182  0.00  0.00    +0.047 A 
ATOM      3  C   UNL     1       4.160   2.491  -7.180  0.00  0.00    +0.013 A 
ATOM      4  C   UNL     1       4.170   3.891  -7.103  0.00  0.00    -0.006 A 
ATOM      5  C   UNL     1       3.584   4.533  -5.985  0.00  0.00    -0.014 A 
ATOM      6  C   UNL     1       2.998   3.755  -4.973  0.00  0.00    +0.054 A 
ATOM      7  C   UNL     1       3.594   5.937  -5.908  0.00  0.00    +0.008 A 
ATOM      8  C   UNL     1       4.163   6.673  -6.904  0.00  0.00    +0.001 A 
ATOM      9  C   UNL     1       4.742   6.061  -8.009  0.00  0.00    +0.014 A 
ATOM     10  C   UNL     1       4.755   4.679  -8.126  0.00  0.00    +0.045 A 
ENDROOT
BRANCH  10  11
ATOM     11  C   UNL     1       5.372   4.036  -9.301  0.00  0.00    +0.250 C 
ATOM     12  O   UNL     1       5.283   2.833  -9.453  0.00  0.00    -0.270 OA
ATOM     13  N   UNL     1       6.035   4.782 -10.207  0.00  0.00    -0.266 N 
ATOM     14  C   UNL     1       6.709   4.165 -11.258  0.00  0.00    +0.125 A 
ATOM     15  C   UNL     1       7.478   4.931 -12.127  0.00  0.00    +0.044 A 
ATOM     16  C   UNL     1       8.142   4.305 -13.167  0.00  0.00    +0.005 A 
ATOM     17  C   UNL     1       8.013   2.930 -13.303  0.00  0.00    +0.020 A 
ATOM     18  C   UNL     1       7.232   2.232 -12.404  0.00  0.00    +0.113 A 
ATOM     19  N   UNL     1       6.615   2.854 -11.418  0.00  0.00    -0.240 NA
ATOM     20  H   UNL     1       6.043   5.749 -10.126  0.00  0.00    +0.157 HD
ENDBRANCH  10  11
BRANCH   1  21
ATOM     21  O   UNL     1       2.447   1.641  -4.094  0.00  0.00    -0.455 OA
BRANCH  21  25
ATOM     22  C   UNL     1       0.914  -0.492  -0.811  0.00  0.00    +0.162 A 
ATOM     23  C   UNL     1       1.377   0.209  -1.887  0.00  0.00    +0.063 A 
ATOM     24  C   UNL     1       2.758   0.292  -2.120  0.00  0.00    +0.044 A 
ATOM     25  C   UNL     1       3.273   1.009  -3.224  0.00  0.00    +0.139 A 
ATOM     26  C   UNL     1       4.646   1.046  -3.389  0.00  0.00    +0.064 A 
ATOM     27  C   UNL     1       5.468   0.389  -2.481  0.00  0.00    +0.086 A 
ATOM     28  N   UNL     1       4.978  -0.274  -1.460  0.00  0.00    -0.360 N 
ATOM     29  C   UNL     1       3.661  -0.352  -1.239  0.00  0.00    +0.054 A 
ATOM     30  C   UNL     1       3.154  -1.066  -0.141  0.00  0.00    +0.075 A 
ATOM     31  C   UNL     1       1.806  -1.125   0.066  0.00  0.00    +0.163 A 
ATOM     32  H   UNL     1       5.587  -0.720  -0.850  0.00  0.00    +0.165 HD
BRANCH  22  34
ATOM     33  C   UNL     1      -1.280   0.095  -1.514  0.00  0.00    +0.277 C 
ATOM     34  O   UNL     1      -0.424  -0.572  -0.584  0.00  0.00    -0.491 OA
ENDBRANCH  22  34
BRANCH  31  35
ATOM     35  O   UNL     1       1.321  -1.813   1.134  0.00  0.00    -0.491 OA
ATOM     36  C   UNL     1       2.278  -2.437   1.992  0.00  0.00    +0.277 C 
ENDBRANCH  31  35
ENDBRANCH  21  25
ENDBRANCH   1  21
TORSDOF 5
