REMARK  Name = CHEMBL452569
REMARK  10 active torsions:
REMARK  status: ('A' for Active; 'I' for Inactive)
REMARK    1  A    between atoms: C_1  and  N_2
REMARK    2  A    between atoms: C_5  and  O_23
REMARK    3  A    between atoms: N_14  and  C_15
REMARK    4  A    between atoms: C_18  and  O_21
REMARK    5  A    between atoms: O_21  and  C_22
REMARK    6  A    between atoms: O_23  and  C_24
REMARK    7  A    between atoms: C_31  and  O_36
REMARK    8  A    between atoms: C_32  and  O_34
REMARK    9  A    between atoms: O_34  and  C_35
REMARK   10  A    between atoms: O_36  and  C_37
REMARK                            x       y       z     vdW  Elec       q    Type
REMARK                         _______ _______ _______ _____ _____    ______ ____
ROOT
ATOM      1  C   UNL     1      -1.054   0.795   0.081  0.00  0.00    +0.173 C 
ATOM      2  N   UNL     1      -0.656  -0.612   0.000  0.00  0.00    -0.265 N 
ATOM      3  C   UNL     1      -0.395  -1.298  -1.158  0.00  0.00    +0.074 A 
ATOM      4  C   UNL     1      -0.410  -0.951  -2.506  0.00  0.00    +0.074 A 
ATOM      5  C   UNL     1      -0.088  -1.896  -3.460  0.00  0.00    +0.131 A 
ATOM      6  C   UNL     1       0.253  -3.195  -3.083  0.00  0.00    +0.047 A 
ATOM      7  C   UNL     1       0.273  -3.553  -1.767  0.00  0.00    +0.017 A 
ATOM      8  C   UNL     1      -0.049  -2.611  -0.784  0.00  0.00    +0.042 A 
ATOM      9  C   UNL     1      -0.124  -2.655   0.677  0.00  0.00    +0.156 A 
ATOM     10  N   UNL     1      -0.476  -1.468   1.092  0.00  0.00    -0.155 NA
ATOM     11  N   UNL     1       0.138  -3.768   1.484  0.00  0.00    -0.252 N 
ATOM     12  C   UNL     1       0.030  -3.669   2.824  0.00  0.00    +0.309 C 
ATOM     13  O   UNL     1      -0.295  -2.613   3.331  0.00  0.00    -0.252 OA
ATOM     14  N   UNL     1       0.283  -4.741   3.601  0.00  0.00    -0.269 N 
ATOM     15  H   UNL     1       0.398  -4.610   1.079  0.00  0.00    +0.158 HD
ATOM     16  H   UNL     1       0.605  -5.564   3.202  0.00  0.00    +0.156 HD
ENDROOT
BRANCH  14  17
ATOM     17  C   UNL     1       0.081  -4.665   4.986  0.00  0.00    +0.035 A 
ATOM     18  C   UNL     1       0.913  -5.366   5.849  0.00  0.00    +0.027 A 
ATOM     19  C   UNL     1       0.713  -5.291   7.213  0.00  0.00    +0.047 A 
ATOM     20  C   UNL     1      -0.320  -4.516   7.721  0.00  0.00    +0.120 A 
ATOM     21  C   UNL     1      -1.151  -3.816   6.860  0.00  0.00    +0.047 A 
ATOM     22  C   UNL     1      -0.949  -3.886   5.496  0.00  0.00    +0.027 A 
BRANCH  20  23
ATOM     23  O   UNL     1      -0.516  -4.444   9.065  0.00  0.00    -0.495 OA
ATOM     24  C   UNL     1      -1.598  -3.627   9.519  0.00  0.00    +0.277 C 
ENDBRANCH  20  23
ENDBRANCH  14  17
BRANCH   5  25
ATOM     25  O   UNL     1      -0.103  -1.558  -4.776  0.00  0.00    -0.455 OA
BRANCH  25  26
ATOM     26  C   UNL     1      -1.148  -1.980  -5.529  0.00  0.00    +0.139 A 
ATOM     27  C   UNL     1      -2.164  -2.742  -4.978  0.00  0.00    +0.064 A 
ATOM     28  C   UNL     1      -3.222  -3.159  -5.775  0.00  0.00    +0.086 A 
ATOM     29  N   UNL     1      -3.291  -2.853  -7.049  0.00  0.00    -0.360 N 
ATOM     30  C   UNL     1      -2.345  -2.120  -7.647  0.00  0.00    +0.054 A 
ATOM     31  C   UNL     1      -1.236  -1.651  -6.900  0.00  0.00    +0.044 A 
ATOM     32  C   UNL     1      -0.248  -0.879  -7.529  0.00  0.00    +0.063 A 
ATOM     33  C   UNL     1      -0.366  -0.581  -8.856  0.00  0.00    +0.162 A 
ATOM     34  C   UNL     1      -1.465  -1.039  -9.597  0.00  0.00    +0.163 A 
ATOM     35  C   UNL     1      -2.434  -1.802  -9.013  0.00  0.00    +0.075 A 
ATOM     36  H   UNL     1      -4.047  -3.166  -7.570  0.00  0.00    +0.165 HD
BRANCH  34  37
ATOM     37  O   UNL     1      -1.560  -0.729 -10.916  0.00  0.00    -0.491 OA
ATOM     38  C   UNL     1      -2.703  -1.224 -11.618  0.00  0.00    +0.277 C 
ENDBRANCH  34  37
BRANCH  33  39
ATOM     39  O   UNL     1       0.591   0.169  -9.465  0.00  0.00    -0.491 OA
ATOM     40  C   UNL     1       1.685   0.605  -8.656  0.00  0.00    +0.277 C 
ENDBRANCH  33  39
ENDBRANCH  25  26
ENDBRANCH   5  25
TORSDOF 6
