REMARK  Name = CHEMBL324489
REMARK  3 active torsions:
REMARK  status: ('A' for Active; 'I' for Inactive)
REMARK    1  A    between atoms: C_1  and  N_2
REMARK    2  A    between atoms: C_8  and  C_10
REMARK    3  A    between atoms: C_17  and  C_20
REMARK                            x       y       z     vdW  Elec       q    Type
REMARK                         _______ _______ _______ _____ _____    ______ ____
ROOT
ATOM      1  C   UNL     1       2.713  -4.028   1.190  0.00  0.00    +0.038 A 
ATOM      2  C   UNL     1       2.269  -3.575   2.441  0.00  0.00    +0.015 A 
ATOM      3  C   UNL     1       2.842  -4.032   3.591  0.00  0.00    +0.027 A 
ATOM      4  C   UNL     1       3.881  -4.959   3.538  0.00  0.00    +0.047 A 
ATOM      5  C   UNL     1       4.338  -5.423   2.287  0.00  0.00    +0.001 A 
ATOM      6  C   UNL     1       3.746  -4.958   1.113  0.00  0.00    +0.023 A 
ATOM      7  C   UNL     1       5.416  -6.369   2.569  0.00  0.00    +0.036 A 
ATOM      8  C   UNL     1       5.549  -6.424   3.919  0.00  0.00    +0.053 A 
ATOM      9  N   UNL     1       4.632  -5.582   4.506  0.00  0.00    -0.354 N 
ATOM     10  H   UNL     1       4.532  -5.447   5.462  0.00  0.00    +0.166 HD
ENDROOT
BRANCH   8  11
ATOM     11  C   UNL     1       6.525  -7.259   4.646  0.00  0.00    +0.063 A 
ATOM     12  C   UNL     1       6.096  -8.286   5.459  0.00  0.00    +0.025 A 
ATOM     13  C   UNL     1       7.057  -9.071   6.144  0.00  0.00    -0.001 A 
ATOM     14  C   UNL     1       6.647 -10.122   6.978  0.00  0.00    +0.010 A 
ATOM     15  C   UNL     1       7.579 -10.873   7.634  0.00  0.00    +0.001 A 
ATOM     16  C   UNL     1       8.934 -10.606   7.483  0.00  0.00    +0.002 A 
ATOM     17  C   UNL     1       9.360  -9.579   6.670  0.00  0.00    +0.026 A 
ATOM     18  C   UNL     1       8.429  -8.798   5.990  0.00  0.00    +0.049 A 
ATOM     19  N   UNL     1       8.851  -7.769   5.174  0.00  0.00    -0.322 N 
ATOM     20  C   UNL     1       7.965  -7.009   4.505  0.00  0.00    +0.258 A 
ATOM     21  O   UNL     1       8.357  -6.108   3.785  0.00  0.00    -0.267 OA
ATOM     22  H   UNL     1       9.801  -7.593   5.078  0.00  0.00    +0.169 HD
ENDBRANCH   8  11
BRANCH   1  30
ATOM     23  C   UNL     1       3.246   1.576  -1.435  0.00  0.00    -0.096 C 
ATOM     24  N   UNL     1       2.452   0.453  -0.919  0.00  0.00    +0.380 N 
ATOM     25  C   UNL     1       2.280  -0.550  -1.977  0.00  0.00    -0.060 C 
ATOM     26  C   UNL     1       1.358  -1.667  -1.476  0.00  0.00    +0.089 C 
ATOM     27  N   UNL     1       1.908  -2.198  -0.220  0.00  0.00    -0.301 N 
ATOM     28  C   UNL     1       2.265  -1.242   0.840  0.00  0.00    +0.089 C 
ATOM     29  C   UNL     1       3.144  -0.146   0.230  0.00  0.00    -0.060 C 
ATOM     30  C   UNL     1       2.081  -3.523  -0.045  0.00  0.00    +0.247 C 
ATOM     31  O   UNL     1       1.717  -4.303  -0.904  0.00  0.00    -0.270 OA
ATOM     32  H   UNL     1       1.547   0.789  -0.627  0.00  0.00    -0.082 HD
ENDBRANCH   1  30
TORSDOF 2
