REMARK  Name = CHEMBL444138
REMARK  4 active torsions:
REMARK  status: ('A' for Active; 'I' for Inactive)
REMARK    1  A    between atoms: C_1  and  C_2
REMARK    2  A    between atoms: C_5  and  N_9
REMARK    3  A    between atoms: C_7  and  O_8
REMARK    4  A    between atoms: N_16  and  C_17
REMARK                            x       y       z     vdW  Elec       q    Type
REMARK                         _______ _______ _______ _____ _____    ______ ____
ROOT
ATOM      1  N   UNL     1      -0.273  -4.170  -0.086  0.00  0.00    -0.299 N 
ATOM      2  C   UNL     1      -0.167  -4.862  -1.283  0.00  0.00    +0.128 A 
ATOM      3  C   UNL     1      -0.245  -4.184  -2.502  0.00  0.00    +0.063 A 
ATOM      4  C   UNL     1      -0.135  -4.914  -3.670  0.00  0.00    +0.118 A 
ATOM      5  N   UNL     1       0.041  -6.225  -3.600  0.00  0.00    -0.223 NA
ATOM      6  C   UNL     1       0.111  -6.842  -2.430  0.00  0.00    +0.221 A 
ATOM      7  N   UNL     1       0.015  -6.178  -1.287  0.00  0.00    -0.199 NA
ATOM      8  N   UNL     1       0.295  -8.215  -2.400  0.00  0.00    -0.284 N 
ATOM      9  H   UNL     1      -0.486  -3.224  -0.090  0.00  0.00    +0.154 HD
ATOM     10  H   UNL     1       0.276  -8.688  -1.553  0.00  0.00    +0.155 HD
ENDROOT
BRANCH   1  15
ATOM     11  C   UNL     1       0.550  -6.882   4.831  0.00  0.00    +0.047 C 
ATOM     12  C   UNL     1       0.331  -6.161   3.526  0.00  0.00    -0.009 A 
ATOM     13  C   UNL     1       1.034  -6.544   2.399  0.00  0.00    +0.009 A 
ATOM     14  C   UNL     1       0.835  -5.886   1.201  0.00  0.00    +0.024 A 
ATOM     15  C   UNL     1      -0.072  -4.836   1.126  0.00  0.00    +0.036 A 
ATOM     16  C   UNL     1      -0.779  -4.450   2.257  0.00  0.00    +0.069 A 
ATOM     17  C   UNL     1      -0.580  -5.117   3.456  0.00  0.00    +0.122 A 
BRANCH  17  18
ATOM     18  O   UNL     1      -1.274  -4.744   4.563  0.00  0.00    -0.506 OA
ATOM     19  H   UNL     1      -0.836  -4.064   5.092  0.00  0.00    +0.292 HD
ENDBRANCH  17  18
ENDBRANCH   1  15
BRANCH   8  20
ATOM     20  C   UNL     1       0.508  -8.918  -3.589  0.00  0.00    +0.035 A 
ATOM     21  C   UNL     1       1.204  -8.324  -4.634  0.00  0.00    +0.023 A 
ATOM     22  C   UNL     1       1.413  -9.020  -5.808  0.00  0.00    +0.003 A 
ATOM     23  C   UNL     1       0.929 -10.309  -5.944  0.00  0.00    +0.015 A 
ATOM     24  C   UNL     1       0.234 -10.904  -4.906  0.00  0.00    +0.020 A 
ATOM     25  C   UNL     1       0.028 -10.213  -3.727  0.00  0.00    +0.038 A 
ATOM     26 BR   UNL     1      -0.425 -12.665  -5.098  0.00  0.00    -0.050 Br
ENDBRANCH   8  20
TORSDOF 3
