REMARK  Name = CHEMBL117052
REMARK  3 active torsions:
REMARK  status: ('A' for Active; 'I' for Inactive)
REMARK    1  A    between atoms: C_8  and  C_12
REMARK    2  A    between atoms: C_16  and  C_22
REMARK    3  A    between atoms: C_27  and  N_29
REMARK                            x       y       z     vdW  Elec       q    Type
REMARK                         _______ _______ _______ _____ _____    ______ ____
ROOT
ATOM      1  C   UNL     1       2.482  -4.228  -0.022  0.00  0.00    +0.053 A 
ATOM      2  C   UNL     1       2.956  -4.997   0.992  0.00  0.00    +0.036 A 
ATOM      3  C   UNL     1       2.864  -6.387   0.548  0.00  0.00    +0.001 A 
ATOM      4  C   UNL     1       3.190  -7.610   1.134  0.00  0.00    +0.023 A 
ATOM      5  C   UNL     1       2.974  -8.787   0.424  0.00  0.00    +0.038 A 
ATOM      6  C   UNL     1       2.432  -8.738  -0.868  0.00  0.00    +0.015 A 
ATOM      7  C   UNL     1       2.112  -7.544  -1.444  0.00  0.00    +0.027 A 
ATOM      8  C   UNL     1       2.320  -6.352  -0.753  0.00  0.00    +0.047 A 
ATOM      9  N   UNL     1       2.094  -5.033  -1.069  0.00  0.00    -0.354 N 
ATOM     10  H   UNL     1       1.719  -4.717  -1.905  0.00  0.00    +0.166 HD
ENDROOT
BRANCH   1  18
ATOM     11  C   UNL     1      -0.175   1.309  -0.034  0.00  0.00    +0.001 A 
ATOM     12  C   UNL     1       0.997   2.053   0.022  0.00  0.00    +0.002 A 
ATOM     13  C   UNL     1       2.224   1.427   0.057  0.00  0.00    +0.026 A 
ATOM     14  C   UNL     1       2.295   0.036   0.038  0.00  0.00    +0.049 A 
ATOM     15  C   UNL     1       1.106  -0.715  -0.018  0.00  0.00    -0.001 A 
ATOM     16  C   UNL     1      -0.131  -0.055  -0.054  0.00  0.00    +0.010 A 
ATOM     17  C   UNL     1       1.162  -2.131  -0.038  0.00  0.00    +0.025 A 
ATOM     18  C   UNL     1       2.392  -2.755  -0.003  0.00  0.00    +0.063 A 
ATOM     19  C   UNL     1       3.609  -1.937   0.055  0.00  0.00    +0.258 A 
ATOM     20  N   UNL     1       3.522  -0.594   0.074  0.00  0.00    -0.322 N 
ATOM     21  O   UNL     1       4.701  -2.476   0.087  0.00  0.00    -0.267 OA
ATOM     22  H   UNL     1       4.332  -0.062   0.112  0.00  0.00    +0.169 HD
ENDBRANCH   1  18
BRANCH   5  23
ATOM     23  C   UNL     1       3.315 -10.088   1.032  0.00  0.00    +0.247 C 
ATOM     24  O   UNL     1       2.993 -11.121   0.478  0.00  0.00    -0.270 OA
ATOM     25  N   UNL     1       3.983 -10.131   2.202  0.00  0.00    -0.299 N 
ATOM     26  C   UNL     1       4.330  -8.969   3.033  0.00  0.00    +0.106 C 
ATOM     27  C   UNL     1       5.111  -9.497   4.255  0.00  0.00    +0.004 C 
ATOM     28  C   UNL     1       5.650 -10.865   3.759  0.00  0.00    -0.056 C 
ATOM     29  C   UNL     1       4.481 -11.351   2.863  0.00  0.00    +0.092 C 
BRANCH  28  30
ATOM     30  N   UNL     1       5.867 -11.785   4.883  0.00  0.00    +0.381 N 
ATOM     31  H   UNL     1       4.994 -11.938   5.366  0.00  0.00    -0.090 HD
ATOM     32  H   UNL     1       6.217 -12.665   4.535  0.00  0.00    -0.090 HD
ATOM     33  H   UNL     1       6.538 -11.385   5.521  0.00  0.00    -0.090 HD
ENDBRANCH  28  30
ENDBRANCH   5  23
TORSDOF 3
