REMARK  Name = CHEMBL202389
REMARK  13 active torsions:
REMARK  status: ('A' for Active; 'I' for Inactive)
REMARK    1  A    between atoms: C_1  and  C_2
REMARK    2  A    between atoms: C_2  and  N_3
REMARK    3  A    between atoms: N_3  and  C_4
REMARK    4  A    between atoms: C_8  and  O_10
REMARK    5  A    between atoms: O_10  and  C_11
REMARK    6  A    between atoms: N_19  and  C_20
REMARK    7  A    between atoms: C_23  and  O_35
REMARK    8  A    between atoms: C_24  and  O_30
REMARK    9  A    between atoms: O_30  and  C_31
REMARK   10  A    between atoms: C_31  and  C_32
REMARK   11  A    between atoms: C_32  and  O_33
REMARK   12  A    between atoms: O_33  and  C_34
REMARK   13  A    between atoms: O_35  and  C_36
REMARK                            x       y       z     vdW  Elec       q    Type
REMARK                         _______ _______ _______ _____ _____    ______ ____
ROOT
ATOM      1  C   UNL     1       2.389  -5.422  -4.174  0.00  0.00    +0.175 C 
ATOM      2  C   UNL     1       1.834  -6.339  -3.342  0.00  0.00    +0.102 C 
ATOM      3  C   UNL     1       1.977  -7.775  -3.625  0.00  0.00    +0.204 C 
ATOM      4  O   UNL     1       1.666  -8.617  -2.803  0.00  0.00    -0.286 OA
ATOM      5  C   UNL     1       2.519  -8.156  -4.958  0.00  0.00    +0.098 C 
ATOM      6  C   UNL     1       3.616  -7.259  -5.509  0.00  0.00    +0.142 C 
ATOM      7  C   UNL     1       3.118  -5.833  -5.390  0.00  0.00    +0.204 C 
ATOM      8  O   UNL     1       3.318  -5.038  -6.278  0.00  0.00    -0.288 OA
ATOM      9  N   UNL     1       2.081  -9.195  -5.612  0.00  0.00    -0.228 NA
ENDROOT
BRANCH   9  10
ATOM     10  C   UNL     1       1.024  -9.905  -5.132  0.00  0.00    +0.164 A 
ATOM     11  C   UNL     1      -0.309  -9.514  -5.420  0.00  0.00    +0.048 A 
ATOM     12  C   UNL     1      -0.601  -8.393  -6.202  0.00  0.00    +0.063 A 
ATOM     13  C   UNL     1      -1.905  -8.063  -6.448  0.00  0.00    +0.162 A 
ATOM     14  C   UNL     1      -2.952  -8.838  -5.923  0.00  0.00    +0.164 A 
ATOM     15  C   UNL     1      -2.694  -9.937  -5.155  0.00  0.00    +0.078 A 
ATOM     16  C   UNL     1      -1.365 -10.299  -4.888  0.00  0.00    +0.080 A 
ATOM     17  N   UNL     1      -1.060 -11.368  -4.143  0.00  0.00    -0.235 NA
ATOM     18  C   UNL     1       0.193 -11.683  -3.908  0.00  0.00    +0.224 A 
ATOM     19  N   UNL     1       1.212 -10.990  -4.383  0.00  0.00    -0.216 NA
BRANCH  13  20
ATOM     20  O   UNL     1      -2.190  -6.974  -7.208  0.00  0.00    -0.491 OA
ATOM     21  C   UNL     1      -1.082  -6.226  -7.713  0.00  0.00    +0.277 C 
ENDBRANCH  13  20
BRANCH  14  22
ATOM     22  O   UNL     1      -4.239  -8.488  -6.181  0.00  0.00    -0.486 OA
BRANCH  22  23
ATOM     23  C   UNL     1      -5.261  -9.314  -5.620  0.00  0.00    +0.257 C 
BRANCH  23  24
ATOM     24  C   UNL     1      -6.634  -8.767  -6.017  0.00  0.00    +0.200 C 
BRANCH  24  25
ATOM     25  O   UNL     1      -6.798  -8.872  -7.433  0.00  0.00    -0.380 OA
ATOM     26  C   UNL     1      -8.054  -8.386  -7.910  0.00  0.00    +0.194 C 
ENDBRANCH  24  25
ENDBRANCH  23  24
ENDBRANCH  22  23
ENDBRANCH  14  22
ENDBRANCH   9  10
BRANCH   1  27
ATOM     27  O   UNL     1       2.267  -4.106  -3.887  0.00  0.00    -0.452 OA
BRANCH  27  32
ATOM     28  C   UNL     1       4.486  -1.344  -3.045  0.00  0.00    +0.031 A 
ATOM     29  C   UNL     1       5.693  -2.019  -2.907  0.00  0.00    +0.023 A 
ATOM     30  C   UNL     1       5.746  -3.386  -3.097  0.00  0.00    +0.005 A 
ATOM     31  C   UNL     1       4.601  -4.086  -3.425  0.00  0.00    +0.046 A 
ATOM     32  C   UNL     1       3.392  -3.417  -3.564  0.00  0.00    +0.130 A 
ATOM     33  C   UNL     1       3.333  -2.046  -3.369  0.00  0.00    +0.069 A 
BRANCH  28  34
ATOM     34  N   UNL     1       4.432   0.039  -2.853  0.00  0.00    -0.344 N 
ATOM     35  H   UNL     1       3.589   0.509  -2.945  0.00  0.00    +0.146 HD
BRANCH  34  37
ATOM     36  C   UNL     1       5.317   2.264  -2.357  0.00  0.00    +0.024 C 
ATOM     37  C   UNL     1       5.650   0.778  -2.511  0.00  0.00    +0.098 C 
ENDBRANCH  34  37
ENDBRANCH  28  34
ENDBRANCH  27  32
ENDBRANCH   1  27
TORSDOF 10
