REMARK  Name = CHEMBL410100
REMARK  7 active torsions:
REMARK  status: ('A' for Active; 'I' for Inactive)
REMARK    1  A    between atoms: C_1  and  C_2
REMARK    2  A    between atoms: C_2  and  C_3
REMARK    3  A    between atoms: C_2  and  C_4
REMARK    4  A    between atoms: C_4  and  N_5
REMARK    5  A    between atoms: C_9  and  C_30
REMARK    6  A    between atoms: N_24  and  C_29
REMARK    7  A    between atoms: C_30  and  C_32
REMARK                            x       y       z     vdW  Elec       q    Type
REMARK                         _______ _______ _______ _____ _____    ______ ____
ROOT
ATOM      1  N   UNL     1      -1.943  -0.106  -1.171  0.00  0.00    -0.339 N 
ATOM      2  C   UNL     1      -2.441   1.154  -1.357  0.00  0.00    +0.050 A 
ATOM      3  C   UNL     1      -2.504   2.248  -0.490  0.00  0.00    +0.027 A 
ATOM      4  C   UNL     1      -3.068   3.401  -0.970  0.00  0.00    +0.014 A 
ATOM      5  C   UNL     1      -3.566   3.502  -2.272  0.00  0.00    +0.026 A 
ATOM      6  C   UNL     1      -3.514   2.419  -3.159  0.00  0.00    +0.022 A 
ATOM      7  C   UNL     1      -2.943   1.247  -2.677  0.00  0.00    +0.009 A 
ATOM      8  C   UNL     1      -2.721  -0.060  -3.302  0.00  0.00    +0.013 A 
ATOM      9  C   UNL     1      -2.094  -0.858  -2.323  0.00  0.00    +0.054 A 
ATOM     10  C   UNL     1      -1.730  -2.169  -2.623  0.00  0.00    -0.014 A 
ATOM     11  C   UNL     1      -2.027  -2.688  -3.879  0.00  0.00    +0.003 A 
ATOM     12  C   UNL     1      -2.633  -1.893  -4.867  0.00  0.00    +0.050 A 
ATOM     13  C   UNL     1      -2.985  -0.579  -4.560  0.00  0.00    -0.008 A 
ATOM     14  C   UNL     1      -3.612  -0.002  -5.805  0.00  0.00    +0.141 C 
ATOM     15  N   UNL     1      -3.597  -1.077  -6.804  0.00  0.00    -0.307 N 
ATOM     16  C   UNL     1      -3.020  -2.162  -6.260  0.00  0.00    +0.245 C 
ATOM     17  O   UNL     1      -2.854  -3.221  -6.834  0.00  0.00    -0.270 OA
ATOM     18  C   UNL     1      -1.726  -4.118  -4.113  0.00  0.00    +0.024 A 
ATOM     19  C   UNL     1      -1.680  -4.855  -5.242  0.00  0.00    +0.116 A 
ATOM     20  N   UNL     1      -1.331  -6.113  -4.888  0.00  0.00    -0.274 N 
ATOM     21  N   UNL     1      -1.163  -6.150  -3.494  0.00  0.00    -0.176 NA
ATOM     22  C   UNL     1      -1.404  -4.971  -3.021  0.00  0.00    +0.071 A 
ATOM     23  C   UNL     1      -1.400  -4.458  -1.603  0.00  0.00    +0.062 C 
ATOM     24  C   UNL     1      -0.997  -2.986  -1.595  0.00  0.00    +0.044 C 
ATOM     25  C   UNL     1      -1.159  -7.245  -5.802  0.00  0.00    +0.172 C 
ATOM     26  H   UNL     1      -3.935  -1.011  -7.711  0.00  0.00    +0.149 HD
ENDROOT
BRANCH   5  27
ATOM     27  C   UNL     1      -4.160   4.777  -2.722  0.00  0.00    +0.228 C 
ATOM     28  O   UNL     1      -4.313   5.690  -1.931  0.00  0.00    -0.283 OA
BRANCH  27  29
ATOM     29  C   UNL     1      -4.565   4.943  -4.120  0.00  0.00    +0.175 A 
ATOM     30  C   UNL     1      -5.031   6.096  -4.690  0.00  0.00    +0.053 A 
ATOM     31  C   UNL     1      -5.295   5.801  -6.036  0.00  0.00    +0.042 A 
ATOM     32  C   UNL     1      -4.982   4.500  -6.228  0.00  0.00    +0.196 A 
ATOM     33  O   UNL     1      -4.538   3.988  -5.072  0.00  0.00    -0.460 OA
ENDBRANCH  27  29
ENDBRANCH   5  27
BRANCH   1  34
ATOM     34  C   UNL     1      -1.331  -0.588   0.070  0.00  0.00    +0.125 C 
BRANCH  34  36
ATOM     35  C   UNL     1      -3.099  -2.337   0.315  0.00  0.00    +0.009 C 
ATOM     36  C   UNL     1      -2.418  -1.146   0.991  0.00  0.00    +0.003 C 
ATOM     37  C   UNL     1      -1.786  -1.600   2.309  0.00  0.00    +0.009 C 
ENDBRANCH  34  36
ENDBRANCH   1  34
TORSDOF 4
