REMARK  Name = CHEMBL411630
REMARK  8 active torsions:
REMARK  status: ('A' for Active; 'I' for Inactive)
REMARK    1  A    between atoms: C_1  and  C_2
REMARK    2  A    between atoms: C_5  and  N_8
REMARK    3  A    between atoms: C_19  and  O_21
REMARK    4  A    between atoms: O_21  and  C_22
REMARK    5  A    between atoms: C_29  and  O_34
REMARK    6  A    between atoms: C_30  and  O_32
REMARK    7  A    between atoms: O_32  and  C_33
REMARK    8  A    between atoms: O_34  and  C_35
REMARK                            x       y       z     vdW  Elec       q    Type
REMARK                         _______ _______ _______ _____ _____    ______ ____
ROOT
ATOM      1  N   UNL     1      -0.165  -4.339   2.444  0.00  0.00    -0.269 N 
ATOM      2  C   UNL     1      -0.135  -4.979   1.258  0.00  0.00    +0.311 C 
ATOM      3  O   UNL     1      -0.217  -4.346   0.224  0.00  0.00    -0.252 OA
ATOM      4  N   UNL     1      -0.013  -6.321   1.220  0.00  0.00    -0.249 N 
ATOM      5  C   UNL     1       0.144  -7.108   2.455  0.00  0.00    +0.156 C 
ATOM      6  C   UNL     1       1.210  -8.180   2.188  0.00  0.00    +0.248 C 
ATOM      7  O   UNL     1       0.788  -8.986   1.085  0.00  0.00    -0.488 OA
ATOM      8  C   UNL     1       0.376  -8.350  -0.043  0.00  0.00    +0.145 A 
ATOM      9  C   UNL     1      -0.037  -7.019  -0.002  0.00  0.00    +0.080 A 
ATOM     10  C   UNL     1      -0.464  -6.383  -1.156  0.00  0.00    +0.031 A 
ATOM     11  C   UNL     1      -0.485  -7.070  -2.356  0.00  0.00    +0.048 A 
ATOM     12  C   UNL     1      -0.078  -8.396  -2.403  0.00  0.00    +0.132 A 
ATOM     13  C   UNL     1       0.361  -9.034  -1.248  0.00  0.00    +0.093 A 
ATOM     14  H   UNL     1       0.004  -4.829   3.264  0.00  0.00    +0.156 HD
ENDROOT
BRANCH   1  19
ATOM     15  C   UNL     1      -1.279   1.220   2.641  0.00  0.00    +0.044 C 
ATOM     16  C   UNL     1      -0.983  -0.257   2.588  0.00  0.00    -0.050 A 
ATOM     17  C   UNL     1      -1.270  -1.057   3.679  0.00  0.00    +0.005 A 
ATOM     18  C   UNL     1      -1.000  -2.410   3.634  0.00  0.00    +0.023 A 
ATOM     19  C   UNL     1      -0.440  -2.968   2.493  0.00  0.00    +0.035 A 
ATOM     20  C   UNL     1      -0.153  -2.162   1.399  0.00  0.00    +0.023 A 
ATOM     21  C   UNL     1      -0.430  -0.809   1.448  0.00  0.00    +0.005 A 
ENDBRANCH   1  19
BRANCH  12  22
ATOM     22  O   UNL     1      -0.098  -9.069  -3.584  0.00  0.00    -0.455 OA
BRANCH  22  23
ATOM     23  C   UNL     1      -1.082  -9.980  -3.780  0.00  0.00    +0.139 A 
ATOM     24  C   UNL     1      -2.120 -10.116  -2.875  0.00  0.00    +0.066 A 
ATOM     25  C   UNL     1      -3.115 -11.057  -3.103  0.00  0.00    +0.115 A 
ATOM     26  N   UNL     1      -3.104 -11.833  -4.162  0.00  0.00    -0.255 NA
ATOM     27  C   UNL     1      -2.131 -11.756  -5.078  0.00  0.00    +0.078 A 
ATOM     28  C   UNL     1      -1.084 -10.816  -4.919  0.00  0.00    +0.046 A 
ATOM     29  C   UNL     1      -0.068 -10.734  -5.884  0.00  0.00    +0.063 A 
ATOM     30  C   UNL     1      -0.102 -11.558  -6.972  0.00  0.00    +0.162 A 
ATOM     31  C   UNL     1      -1.141 -12.486  -7.135  0.00  0.00    +0.164 A 
ATOM     32  C   UNL     1      -2.135 -12.595  -6.205  0.00  0.00    +0.077 A 
BRANCH  31  33
ATOM     33  O   UNL     1      -1.153 -13.295  -8.226  0.00  0.00    -0.491 OA
ATOM     34  C   UNL     1      -2.237 -14.220  -8.337  0.00  0.00    +0.277 C 
ENDBRANCH  31  33
BRANCH  30  35
ATOM     35  O   UNL     1       0.881 -11.478  -7.907  0.00  0.00    -0.491 OA
ATOM     36  C   UNL     1       1.911 -10.513  -7.685  0.00  0.00    +0.277 C 
ENDBRANCH  30  35
ENDBRANCH  22  23
ENDBRANCH  12  22
TORSDOF 5
