REMARK  Name = CHEMBL1085293
REMARK  5 active torsions:
REMARK  status: ('A' for Active; 'I' for Inactive)
REMARK    1  A    between atoms: C_1  and  N_2
REMARK    2  A    between atoms: N_15  and  C_28
REMARK    3  A    between atoms: C_19  and  C_22
REMARK    4  A    between atoms: C_28  and  C_29
REMARK    5  A    between atoms: C_29  and  O_30
REMARK                            x       y       z     vdW  Elec       q    Type
REMARK                         _______ _______ _______ _____ _____    ______ ____
ROOT
ATOM      1  C   UNL     1       1.464   1.202   0.343  0.00  0.00    +0.172 C 
ATOM      2  N   UNL     1       1.232  -0.243   0.273  0.00  0.00    -0.274 N 
ATOM      3  C   UNL     1       1.062  -0.964  -0.859  0.00  0.00    +0.116 A 
ATOM      4  C   UNL     1       0.855  -2.245  -0.495  0.00  0.00    +0.024 A 
ATOM      5  C   UNL     1       0.931  -2.311   0.926  0.00  0.00    +0.071 A 
ATOM      6  N   UNL     1       1.154  -1.118   1.369  0.00  0.00    -0.176 NA
ATOM      7  C   UNL     1       0.780  -3.623   1.652  0.00  0.00    +0.062 C 
ATOM      8  C   UNL     1      -0.179  -4.524   0.878  0.00  0.00    +0.044 C 
ATOM      9  C   UNL     1       0.130  -4.587  -0.593  0.00  0.00    -0.014 A 
ATOM     10  C   UNL     1       0.608  -3.475  -1.279  0.00  0.00    +0.003 A 
ATOM     11  C   UNL     1       0.855  -3.528  -2.662  0.00  0.00    +0.050 A 
ATOM     12  C   UNL     1       0.645  -4.725  -3.345  0.00  0.00    -0.008 A 
ATOM     13  C   UNL     1       0.193  -5.846  -2.668  0.00  0.00    +0.013 A 
ATOM     14  C   UNL     1      -0.069  -5.781  -1.283  0.00  0.00    +0.054 A 
ATOM     15  N   UNL     1      -0.505  -7.023  -0.857  0.00  0.00    -0.337 N 
ATOM     16  C   UNL     1      -0.544  -7.899  -1.911  0.00  0.00    +0.050 A 
ATOM     17  C   UNL     1      -0.117  -7.219  -3.074  0.00  0.00    +0.008 A 
ATOM     18  C   UNL     1      -0.054  -7.858  -4.311  0.00  0.00    +0.016 A 
ATOM     19  C   UNL     1      -0.428  -9.192  -4.345  0.00  0.00    -0.018 A 
ATOM     20  C   UNL     1      -0.845  -9.861  -3.209  0.00  0.00    +0.008 A 
ATOM     21  C   UNL     1      -0.914  -9.241  -1.971  0.00  0.00    +0.027 A 
ATOM     22  C   UNL     1       1.000  -4.462  -4.788  0.00  0.00    +0.141 C 
ATOM     23  N   UNL     1       1.414  -3.056  -4.856  0.00  0.00    -0.307 N 
ATOM     24  C   UNL     1       1.328  -2.522  -3.626  0.00  0.00    +0.245 C 
ATOM     25  O   UNL     1       1.603  -1.371  -3.348  0.00  0.00    -0.270 OA
ATOM     26  H   UNL     1       1.702  -2.589  -5.656  0.00  0.00    +0.149 HD
ENDROOT
BRANCH  19  27
ATOM     27  C   UNL     1      -0.380  -9.934  -5.656  0.00  0.00    +0.148 C 
ATOM     28  C   UNL     1      -1.763  -9.903  -6.311  0.00  0.00    +0.036 C 
ATOM     29  C   UNL     1      -1.721 -10.710  -7.613  0.00  0.00    +0.005 C 
ATOM     30  C   UNL     1      -1.256 -12.136  -7.302  0.00  0.00    +0.028 C 
ATOM     31  C   UNL     1       0.107 -12.081  -6.608  0.00  0.00    +0.160 C 
ATOM     32  O   UNL     1       0.005 -11.290  -5.422  0.00  0.00    -0.372 OA
ENDBRANCH  19  27
BRANCH  15  33
ATOM     33  C   UNL     1      -0.873  -7.355   0.522  0.00  0.00    +0.150 C 
BRANCH  33  34
ATOM     34  C   UNL     1       0.384  -7.726   1.310  0.00  0.00    +0.177 C 
BRANCH  34  35
ATOM     35  O   UNL     1       0.025  -8.049   2.655  0.00  0.00    -0.393 OA
ATOM     36  H   UNL     1       0.775  -8.295   3.214  0.00  0.00    +0.209 HD
ENDBRANCH  34  35
ENDBRANCH  33  34
ENDBRANCH  15  33
TORSDOF 4
