REMARK  Name = CHEMBL258240
REMARK  9 active torsions:
REMARK  status: ('A' for Active; 'I' for Inactive)
REMARK    1  A    between atoms: C_1  and  N_2
REMARK    2  A    between atoms: C_6  and  C_7
REMARK    3  A    between atoms: C_12  and  O_16
REMARK    4  A    between atoms: O_16  and  C_17
REMARK    5  A    between atoms: C_20  and  N_24
REMARK    6  A    between atoms: N_24  and  C_25
REMARK    7  A    between atoms: C_25  and  N_27
REMARK    8  A    between atoms: C_28  and  C_30
REMARK    9  A    between atoms: C_30  and  C_31
REMARK                            x       y       z     vdW  Elec       q    Type
REMARK                         _______ _______ _______ _____ _____    ______ ____
ROOT
ATOM      1  C   UNL     1       1.348   3.154   7.366  0.00  0.00    +0.164 A 
ATOM      2  C   UNL     1       1.162   2.367   8.493  0.00  0.00    +0.051 A 
ATOM      3  C   UNL     1       1.286   2.921   9.752  0.00  0.00    +0.027 A 
ATOM      4  C   UNL     1       1.595   4.268   9.891  0.00  0.00    +0.036 A 
ATOM      5  C   UNL     1       1.782   5.057   8.764  0.00  0.00    +0.065 A 
ATOM      6  C   UNL     1       1.664   4.500   7.504  0.00  0.00    +0.167 A 
ATOM      7  F   UNL     1       1.850   5.266   6.407  0.00  0.00    -0.202 F 
ENDROOT
BRANCH   4   8
ATOM      8  N   UNL     1       1.720   4.829  11.168  0.00  0.00    -0.297 N 
ATOM      9  H   UNL     1       1.293   5.677  11.368  0.00  0.00    +0.154 HD
BRANCH   8  10
ATOM     10  C   UNL     1       2.432   4.192  12.118  0.00  0.00    +0.141 C 
ATOM     11  S   UNL     1       3.087   2.642  11.801  0.00  0.00    -0.018 S 
BRANCH  10  12
ATOM     12  N   UNL     1       2.628   4.774  13.317  0.00  0.00    -0.267 N 
ATOM     13  C   UNL     1       3.340   4.137  14.268  0.00  0.00    +0.223 C 
ATOM     14  O   UNL     1       3.804   3.039  14.043  0.00  0.00    -0.275 OA
ATOM     15  H   UNL     1       2.257   5.652  13.497  0.00  0.00    +0.157 HD
BRANCH  13  16
ATOM     16  C   UNL     1       3.560   4.788  15.609  0.00  0.00    +0.131 C 
BRANCH  16  17
ATOM     17  C   UNL     1       4.380   3.875  16.483  0.00  0.00    -0.039 A 
ATOM     18  C   UNL     1       3.754   2.944  17.290  0.00  0.00    +0.004 A 
ATOM     19  C   UNL     1       4.506   2.106  18.091  0.00  0.00    +0.000 A 
ATOM     20  C   UNL     1       5.886   2.199  18.085  0.00  0.00    +0.000 A 
ATOM     21  C   UNL     1       6.512   3.129  17.277  0.00  0.00    +0.000 A 
ATOM     22  C   UNL     1       5.760   3.964  16.473  0.00  0.00    +0.004 A 
ENDBRANCH  16  17
ENDBRANCH  13  16
ENDBRANCH  10  12
ENDBRANCH   8  10
ENDBRANCH   4   8
BRANCH   1  23
ATOM     23  O   UNL     1       1.226   2.608   6.127  0.00  0.00    -0.452 OA
BRANCH  23  29
ATOM     24  C   UNL     1       2.011   0.376   1.879  0.00  0.00    +0.055 A 
ATOM     25  C   UNL     1       3.276   0.655   2.293  0.00  0.00    +0.047 A 
ATOM     26  C   UNL     1       3.485   1.317   3.516  0.00  0.00    +0.082 A 
ATOM     27  C   UNL     1       2.313   1.646   4.233  0.00  0.00    +0.080 A 
ATOM     28  S   UNL     1       1.007   1.041   3.196  0.00  0.00    -0.080 S 
ATOM     29  C   UNL     1       2.363   2.299   5.452  0.00  0.00    +0.146 A 
ATOM     30  C   UNL     1       3.615   2.630   5.965  0.00  0.00    +0.067 A 
ATOM     31  C   UNL     1       4.739   2.290   5.230  0.00  0.00    +0.115 A 
ATOM     32  N   UNL     1       4.663   1.672   4.079  0.00  0.00    -0.254 NA
BRANCH  24  38
ATOM     33  C   UNL     1      -0.436  -1.506   1.591  0.00  0.00    +0.150 C 
ATOM     34  N   UNL     1       0.497  -1.130   0.526  0.00  0.00    -0.335 N 
ATOM     35  C   UNL     1       0.449  -1.538  -0.780  0.00  0.00    +0.104 A 
ATOM     36  C   UNL     1       1.490  -0.959  -1.414  0.00  0.00    +0.102 A 
ATOM     37  N   UNL     1       2.163  -0.216  -0.529  0.00  0.00    -0.345 N 
ATOM     38  C   UNL     1       1.576  -0.302   0.646  0.00  0.00    +0.125 A 
ATOM     39  H   UNL     1       2.957   0.307  -0.724  0.00  0.00    +0.167 HD
ENDBRANCH  24  38
ENDBRANCH  23  29
ENDBRANCH   1  23
TORSDOF 8
