REMARK  Name = CHEMBL231800
REMARK  10 active torsions:
REMARK  status: ('A' for Active; 'I' for Inactive)
REMARK    1  A    between atoms: C_1  and  C_2
REMARK    2  A    between atoms: C_2  and  C_3
REMARK    3  A    between atoms: C_2  and  C_4
REMARK    4  A    between atoms: C_2  and  N_33
REMARK    5  A    between atoms: C_7  and  C_10
REMARK    6  A    between atoms: C_11  and  C_31
REMARK    7  A    between atoms: N_16  and  C_17
REMARK    8  A    between atoms: C_20  and  C_23
REMARK    9  A    between atoms: C_23  and  C_24
REMARK   10  A    between atoms: C_24  and  N_25
REMARK                            x       y       z     vdW  Elec       q    Type
REMARK                         _______ _______ _______ _____ _____    ______ ____
ROOT
ATOM      1  C   UNL     1      -5.329  -2.248   0.155  0.00  0.00    +0.093 A 
ATOM      2  C   UNL     1      -5.880  -2.813  -1.016  0.00  0.00    +0.096 A 
ATOM      3  C   UNL     1      -7.254  -3.077  -1.039  0.00  0.00    +0.135 A 
ATOM      4  N   UNL     1      -7.980  -2.791   0.026  0.00  0.00    -0.221 NA
ATOM      5  C   UNL     1      -7.429  -2.260   1.110  0.00  0.00    +0.220 A 
ATOM      6  N   UNL     1      -6.133  -1.997   1.183  0.00  0.00    -0.213 NA
ATOM      7  N   UNL     1      -8.232  -1.978   2.199  0.00  0.00    -0.284 N 
ATOM      8  H   UNL     1      -7.862  -1.516   2.968  0.00  0.00    +0.155 HD
ENDROOT
BRANCH   1  12
ATOM      9  C   UNL     1      -1.175  -1.384   0.396  0.00  0.00    -0.059 A 
ATOM     10  C   UNL     1      -2.088  -0.557   1.026  0.00  0.00    +0.003 A 
ATOM     11  C   UNL     1      -3.438  -0.833   0.952  0.00  0.00    +0.010 A 
ATOM     12  C   UNL     1      -3.882  -1.947   0.239  0.00  0.00    +0.002 A 
ATOM     13  C   UNL     1      -2.956  -2.776  -0.395  0.00  0.00    +0.010 A 
ATOM     14  C   UNL     1      -1.609  -2.487  -0.317  0.00  0.00    +0.003 A 
BRANCH   9  16
ATOM     15  C   UNL     1       0.497   0.434   0.616  0.00  0.00    -0.006 C 
ATOM     16  C   UNL     1       0.298  -1.077   0.481  0.00  0.00    -0.051 C 
ATOM     17  C   UNL     1       0.896  -1.782   1.701  0.00  0.00    -0.006 C 
BRANCH  16  18
ATOM     18  N   UNL     1       0.968  -1.552  -0.737  0.00  0.00    +0.384 N 
ATOM     19  H   UNL     1       1.955  -1.347  -0.679  0.00  0.00    -0.089 HD
ATOM     20  H   UNL     1       0.837  -2.549  -0.826  0.00  0.00    -0.089 HD
ATOM     21  H   UNL     1       0.574  -1.088  -1.541  0.00  0.00    -0.089 HD
ENDBRANCH  16  18
ENDBRANCH   9  16
ENDBRANCH   1  12
BRANCH   7  22
ATOM     22  C   UNL     1      -9.577  -2.358   2.193  0.00  0.00    +0.034 A 
ATOM     23  C   UNL     1      -9.968  -3.526   1.551  0.00  0.00    +0.023 A 
ATOM     24  C   UNL     1     -11.297  -3.899   1.548  0.00  0.00    +0.005 A 
ATOM     25  C   UNL     1     -12.240  -3.110   2.182  0.00  0.00    -0.049 A 
ATOM     26  C   UNL     1     -11.855  -1.946   2.822  0.00  0.00    +0.005 A 
ATOM     27  C   UNL     1     -10.526  -1.571   2.834  0.00  0.00    +0.023 A 
BRANCH  25  28
ATOM     28  C   UNL     1     -13.690  -3.519   2.175  0.00  0.00    +0.016 C 
BRANCH  28  29
ATOM     29  C   UNL     1     -13.978  -4.398   3.394  0.00  0.00    -0.074 C 
BRANCH  29  30
ATOM     30  N   UNL     1     -15.392  -4.797   3.387  0.00  0.00    +0.383 N 
ATOM     31  C   UNL     1     -16.238  -3.607   3.558  0.00  0.00    -0.050 C 
ATOM     32  C   UNL     1     -17.710  -4.026   3.550  0.00  0.00    +0.141 C 
ATOM     33  O   UNL     1     -17.933  -4.983   4.590  0.00  0.00    -0.383 OA
ATOM     34  C   UNL     1     -17.115  -6.151   4.480  0.00  0.00    +0.141 C 
ATOM     35  C   UNL     1     -15.641  -5.736   4.489  0.00  0.00    -0.050 C 
ATOM     36  H   UNL     1     -15.611  -5.243   2.509  0.00  0.00    -0.082 HD
ENDBRANCH  29  30
ENDBRANCH  28  29
ENDBRANCH  25  28
ENDBRANCH   7  22
BRANCH   2  37
ATOM     37  C   UNL     1      -5.055  -3.108  -2.149  0.00  0.00    +0.103 C 
ATOM     38  N   UNL     1      -4.401  -3.342  -3.048  0.00  0.00    -0.191 NA
ENDBRANCH   2  37
TORSDOF 8
