REMARK  Name = CHEMBL517469
REMARK  7 active torsions:
REMARK  status: ('A' for Active; 'I' for Inactive)
REMARK    1  A    between atoms: C_1  and  C_2
REMARK    2  A    between atoms: C_2  and  N_3
REMARK    3  A    between atoms: C_5  and  C_8
REMARK    4  A    between atoms: C_13  and  O_17
REMARK    5  A    between atoms: O_17  and  C_18
REMARK    6  A    between atoms: C_21  and  N_25
REMARK    7  A    between atoms: N_31  and  C_34
REMARK                            x       y       z     vdW  Elec       q    Type
REMARK                         _______ _______ _______ _____ _____    ______ ____
ROOT
ATOM      1  C   UNL     1       9.691  -2.384   3.359  0.00  0.00    +0.164 A 
ATOM      2  C   UNL     1      10.072  -2.455   4.691  0.00  0.00    +0.051 A 
ATOM      3  C   UNL     1      11.353  -2.848   5.024  0.00  0.00    +0.027 A 
ATOM      4  C   UNL     1      12.262  -3.172   4.026  0.00  0.00    +0.038 A 
ATOM      5  C   UNL     1      11.883  -3.101   2.692  0.00  0.00    +0.065 A 
ATOM      6  C   UNL     1      10.598  -2.714   2.359  0.00  0.00    +0.167 A 
ATOM      7  F   UNL     1      10.226  -2.650   1.062  0.00  0.00    -0.202 F 
ENDROOT
BRANCH   4   8
ATOM      8  N   UNL     1      13.562  -3.570   4.364  0.00  0.00    -0.269 N 
ATOM      9  C   UNL     1      14.586  -3.306   3.529  0.00  0.00    +0.314 C 
ATOM     10  O   UNL     1      14.367  -2.863   2.418  0.00  0.00    -0.252 OA
ATOM     11  N   UNL     1      15.855  -3.534   3.925  0.00  0.00    -0.208 N 
ATOM     12  C   UNL     1      16.251  -4.170   5.190  0.00  0.00    +0.139 C 
ATOM     13  C   UNL     1      17.791  -4.180   5.132  0.00  0.00    +0.135 C 
ATOM     14  N   UNL     1      18.099  -3.547   3.840  0.00  0.00    -0.251 N 
ATOM     15  C   UNL     1      16.954  -3.221   3.226  0.00  0.00    +0.317 C 
ATOM     16  O   UNL     1      16.916  -2.687   2.135  0.00  0.00    -0.252 OA
ATOM     17  H   UNL     1      13.725  -4.035   5.200  0.00  0.00    +0.156 HD
BRANCH  14  18
ATOM     18  C   UNL     1      19.384  -3.327   3.330  0.00  0.00    +0.073 A 
ATOM     19  C   UNL     1      19.994  -4.291   2.540  0.00  0.00    +0.026 A 
ATOM     20  C   UNL     1      21.262  -4.070   2.038  0.00  0.00    +0.002 A 
ATOM     21  C   UNL     1      21.926  -2.891   2.323  0.00  0.00    +0.003 A 
ATOM     22  C   UNL     1      21.323  -1.928   3.111  0.00  0.00    +0.040 A 
ATOM     23  C   UNL     1      20.051  -2.139   3.611  0.00  0.00    +0.145 A 
ATOM     24  F   UNL     1      19.459  -1.195   4.376  0.00  0.00    -0.204 F 
ENDBRANCH  14  18
ENDBRANCH   4   8
BRANCH   1  25
ATOM     25  O   UNL     1       8.429  -1.997   3.032  0.00  0.00    -0.452 OA
BRANCH  25  31
ATOM     26  C   UNL     1       3.712  -1.860   1.867  0.00  0.00    +0.042 A 
ATOM     27  C   UNL     1       4.035  -3.150   1.594  0.00  0.00    +0.046 A 
ATOM     28  C   UNL     1       5.350  -3.606   1.804  0.00  0.00    +0.082 A 
ATOM     29  C   UNL     1       6.252  -2.639   2.300  0.00  0.00    +0.080 A 
ATOM     30  S   UNL     1       5.258  -1.176   2.441  0.00  0.00    -0.081 S 
ATOM     31  C   UNL     1       7.577  -2.940   2.555  0.00  0.00    +0.146 A 
ATOM     32  C   UNL     1       8.010  -4.241   2.308  0.00  0.00    +0.067 A 
ATOM     33  C   UNL     1       7.095  -5.159   1.822  0.00  0.00    +0.115 A 
ATOM     34  N   UNL     1       5.845  -4.846   1.588  0.00  0.00    -0.254 NA
BRANCH  26  37
ATOM     35  N   UNL     1       0.814   0.316   1.722  0.00  0.00    -0.336 N 
ATOM     36  C   UNL     1       2.136   0.118   2.003  0.00  0.00    +0.115 A 
ATOM     37  C   UNL     1       2.405  -1.186   1.719  0.00  0.00    +0.095 A 
ATOM     38  N   UNL     1       1.262  -1.752   1.277  0.00  0.00    -0.235 NA
ATOM     39  C   UNL     1       0.312  -0.860   1.283  0.00  0.00    +0.200 A 
BRANCH  35  41
ATOM     40  C   UNL     1      -0.520   1.645   3.283  0.00  0.00    +0.027 C 
ATOM     41  C   UNL     1       0.074   1.571   1.875  0.00  0.00    +0.119 C 
ENDBRANCH  35  41
ENDBRANCH  26  37
ENDBRANCH  25  31
ENDBRANCH   1  25
TORSDOF 6
