REMARK  Name = CHEMBL380702
REMARK  3 active torsions:
REMARK  status: ('A' for Active; 'I' for Inactive)
REMARK    1  A    between atoms: C_7  and  N_27
REMARK    2  A    between atoms: C_8  and  C_12
REMARK    3  A    between atoms: C_17  and  N_21
REMARK                            x       y       z     vdW  Elec       q    Type
REMARK                         _______ _______ _______ _____ _____    ______ ____
ROOT
ATOM      1  C   UNL     1       0.306   1.658   0.025  0.00  0.00    +0.001 A 
ATOM      2  C   UNL     1       1.568   2.235  -0.012  0.00  0.00    +0.002 A 
ATOM      3  C   UNL     1       2.700   1.450  -0.041  0.00  0.00    +0.026 A 
ATOM      4  C   UNL     1       2.581   0.064  -0.034  0.00  0.00    +0.051 A 
ATOM      5  C   UNL     1       1.300  -0.516   0.004  0.00  0.00    +0.020 A 
ATOM      6  C   UNL     1       0.165   0.299   0.033  0.00  0.00    +0.012 A 
ATOM      7  C   UNL     1       1.181  -1.980   0.013  0.00  0.00    +0.050 A 
ATOM      8  C   UNL     1       2.356  -2.736  -0.018  0.00  0.00    +0.105 A 
ATOM      9  C   UNL     1       3.609  -2.080  -0.056  0.00  0.00    +0.262 A 
ATOM     10  N   UNL     1       3.703  -0.740  -0.062  0.00  0.00    -0.321 N 
ATOM     11  O   UNL     1       4.629  -2.747  -0.082  0.00  0.00    -0.267 OA
ATOM     12  H   UNL     1       4.580  -0.327  -0.088  0.00  0.00    +0.169 HD
ENDROOT
BRANCH   8  13
ATOM     13  C   UNL     1       2.290  -4.206  -0.011  0.00  0.00    +0.170 A 
ATOM     14  N   UNL     1       3.369  -5.044   0.083  0.00  0.00    -0.224 NA
ATOM     15  C   UNL     1       2.878  -6.338   0.055  0.00  0.00    +0.110 A 
ATOM     16  C   UNL     1       3.468  -7.595   0.113  0.00  0.00    +0.035 A 
ATOM     17  C   UNL     1       2.648  -8.708   0.058  0.00  0.00    +0.046 A 
ATOM     18  C   UNL     1       1.269  -8.537  -0.054  0.00  0.00    +0.124 A 
ATOM     19  N   UNL     1       0.731  -7.332  -0.107  0.00  0.00    -0.211 NA
ATOM     20  C   UNL     1       1.482  -6.231  -0.057  0.00  0.00    +0.182 A 
ATOM     21  N   UNL     1       1.185  -4.916  -0.088  0.00  0.00    -0.206 NA
BRANCH  18  22
ATOM     22  N   UNL     1       0.445  -9.657  -0.110  0.00  0.00    -0.311 N 
ATOM     23  C   UNL     1      -0.980  -9.532  -0.452  0.00  0.00    +0.134 C 
ATOM     24  C   UNL     1      -1.300 -10.534  -1.567  0.00  0.00    +0.178 C 
ATOM     25  O   UNL     1      -0.853 -11.834  -1.173  0.00  0.00    -0.377 OA
ATOM     26  C   UNL     1       0.559 -11.932  -0.974  0.00  0.00    +0.178 C 
ATOM     27  C   UNL     1       0.975 -11.002   0.165  0.00  0.00    +0.134 C 
ENDBRANCH  18  22
ENDBRANCH   8  13
BRANCH   7  28
ATOM     28  N   UNL     1      -0.049  -2.588   0.050  0.00  0.00    -0.357 N 
ATOM     29  H   UNL     1      -0.852  -2.053   0.153  0.00  0.00    +0.142 HD
ATOM     30  H   UNL     1      -0.116  -3.553  -0.028  0.00  0.00    +0.142 HD
ENDBRANCH   7  28
TORSDOF 3
