REMARK  Name = CHEMBL198862
REMARK  12 active torsions:
REMARK  status: ('A' for Active; 'I' for Inactive)
REMARK    1  A    between atoms: C_1  and  O_2
REMARK    2  A    between atoms: O_2  and  C_3
REMARK    3  A    between atoms: C_8  and  O_9
REMARK    4  A    between atoms: O_9  and  C_10
REMARK    5  A    between atoms: C_10  and  C_11
REMARK    6  A    between atoms: C_11  and  C_12
REMARK    7  A    between atoms: C_12  and  N_13
REMARK    8  A    between atoms: C_21  and  N_22
REMARK    9  A    between atoms: C_26  and  O_30
REMARK   10  A    between atoms: O_30  and  C_31
REMARK   11  A    between atoms: C_31  and  C_32
REMARK   12  A    between atoms: C_31  and  C_34
REMARK                            x       y       z     vdW  Elec       q    Type
REMARK                         _______ _______ _______ _____ _____    ______ ____
ROOT
ATOM      1  C   UNL     1      -0.018  -0.226   0.080  0.00  0.00    +0.162 A 
ATOM      2  C   UNL     1       0.684   0.315   1.121  0.00  0.00    +0.063 A 
ATOM      3  C   UNL     1       1.344  -0.528   2.019  0.00  0.00    +0.048 A 
ATOM      4  C   UNL     1       1.281  -1.936   1.844  0.00  0.00    +0.080 A 
ATOM      5  C   UNL     1       0.553  -2.464   0.767  0.00  0.00    +0.078 A 
ATOM      6  C   UNL     1      -0.087  -1.618  -0.093  0.00  0.00    +0.164 A 
ATOM      7  N   UNL     1       1.921  -2.722   2.718  0.00  0.00    -0.235 NA
ATOM      8  C   UNL     1       2.594  -2.200   3.717  0.00  0.00    +0.224 A 
ATOM      9  N   UNL     1       2.684  -0.899   3.924  0.00  0.00    -0.216 NA
ATOM     10  C   UNL     1       2.087  -0.024   3.118  0.00  0.00    +0.164 A 
ENDROOT
BRANCH  10  11
ATOM     11  N   UNL     1       2.187   1.315   3.340  0.00  0.00    -0.228 NA
ATOM     12  C   UNL     1       1.264   1.932   4.022  0.00  0.00    +0.098 C 
ATOM     13  C   UNL     1       1.254   3.444   4.183  0.00  0.00    +0.142 C 
ATOM     14  C   UNL     1      -0.143   3.915   3.838  0.00  0.00    +0.203 C 
ATOM     15  C   UNL     1      -1.306   3.128   4.293  0.00  0.00    +0.169 C 
ATOM     16  C   UNL     1      -1.173   1.838   4.688  0.00  0.00    +0.102 C 
ATOM     17  C   UNL     1       0.150   1.201   4.687  0.00  0.00    +0.204 C 
ATOM     18  O   UNL     1       0.327   0.119   5.214  0.00  0.00    -0.286 OA
ATOM     19  O   UNL     1      -0.304   4.926   3.196  0.00  0.00    -0.288 OA
BRANCH  15  20
ATOM     20  O   UNL     1      -2.529   3.707   4.317  0.00  0.00    -0.468 OA
BRANCH  20  21
ATOM     21  C   UNL     1      -3.598   2.939   4.873  0.00  0.00    +0.278 C 
BRANCH  21  22
ATOM     22  C   UNL     1      -4.683   3.866   5.359  0.00  0.00    +0.005 A 
ATOM     23  C   UNL     1      -5.025   4.979   4.614  0.00  0.00    +0.008 A 
ATOM     24  C   UNL     1      -6.020   5.829   5.060  0.00  0.00    +0.000 A 
ATOM     25  C   UNL     1      -6.672   5.566   6.250  0.00  0.00    +0.000 A 
ATOM     26  C   UNL     1      -6.330   4.453   6.994  0.00  0.00    +0.000 A 
ATOM     27  C   UNL     1      -5.338   3.600   6.546  0.00  0.00    +0.008 A 
ENDBRANCH  21  22
BRANCH  21  28
ATOM     28  C   UNL     1      -4.145   2.042   3.842  0.00  0.00    -0.057 C 
ATOM     29  C   UNL     1      -4.582   1.327   3.019  0.00  0.00    +0.008 C 
ENDBRANCH  21  28
ENDBRANCH  20  21
ENDBRANCH  15  20
ENDBRANCH  10  11
BRANCH   1  31
ATOM     30  C   UNL     1      -0.552   1.998  -0.566  0.00  0.00    +0.277 C 
ATOM     31  O   UNL     1      -0.660   0.592  -0.795  0.00  0.00    -0.491 OA
ENDBRANCH   1  31
BRANCH   6  32
ATOM     32  O   UNL     1      -0.797  -2.130  -1.132  0.00  0.00    -0.488 OA
BRANCH  32  33
ATOM     33  C   UNL     1      -0.831  -3.553  -1.256  0.00  0.00    +0.227 C 
BRANCH  33  34
ATOM     34  C   UNL     1      -1.671  -3.939  -2.475  0.00  0.00    +0.022 C 
BRANCH  34  35
ATOM     35  C   UNL     1      -1.707  -5.463  -2.607  0.00  0.00    -0.076 C 
BRANCH  35  36
ATOM     36  N   UNL     1      -2.514  -5.833  -3.778  0.00  0.00    +0.380 N 
ATOM     37  C   UNL     1      -1.818  -5.432  -5.027  0.00  0.00    -0.079 C 
ATOM     38  C   UNL     1      -2.458  -6.348  -6.100  0.00  0.00    -0.020 C 
ATOM     39  C   UNL     1      -2.649  -7.684  -5.345  0.00  0.00    -0.020 C 
ATOM     40  C   UNL     1      -2.659  -7.303  -3.852  0.00  0.00    -0.079 C 
ATOM     41  H   UNL     1      -3.421  -5.396  -3.728  0.00  0.00    -0.082 HD
ENDBRANCH  35  36
ENDBRANCH  34  35
ENDBRANCH  33  34
ENDBRANCH  32  33
ENDBRANCH   6  32
TORSDOF 11
