REMARK  Name = CHEMBL324335
REMARK  6 active torsions:
REMARK  status: ('A' for Active; 'I' for Inactive)
REMARK    1  A    between atoms: C_3  and  O_21
REMARK    2  A    between atoms: C_6  and  C_7
REMARK    3  A    between atoms: C_11  and  C_16
REMARK    4  A    between atoms: O_21  and  C_22
REMARK    5  A    between atoms: C_22  and  C_23
REMARK    6  A    between atoms: C_23  and  N_24
REMARK                            x       y       z     vdW  Elec       q    Type
REMARK                         _______ _______ _______ _____ _____    ______ ____
ROOT
ATOM      1  C   UNL     1      -0.020   1.447  -0.301  0.00  0.00    +0.012 A 
ATOM      2  C   UNL     1       1.173   2.139  -0.283  0.00  0.00    +0.046 A 
ATOM      3  C   UNL     1       2.374   1.452  -0.176  0.00  0.00    +0.121 A 
ATOM      4  C   UNL     1       2.378   0.066  -0.087  0.00  0.00    +0.046 A 
ATOM      5  C   UNL     1       1.188  -0.631  -0.104  0.00  0.00    +0.012 A 
ATOM      6  C   UNL     1      -0.019   0.057  -0.211  0.00  0.00    -0.015 A 
ENDROOT
BRANCH   6   7
ATOM      7  C   UNL     1      -1.301  -0.691  -0.230  0.00  0.00    +0.018 A 
ATOM      8  C   UNL     1      -2.236  -0.532   0.817  0.00  0.00    +0.123 A 
ATOM      9  N   UNL     1      -3.367  -1.195   0.795  0.00  0.00    -0.235 NA
ATOM     10  C   UNL     1      -3.658  -2.029  -0.210  0.00  0.00    +0.163 A 
ATOM     11  C   UNL     1      -4.767  -2.840  -0.472  0.00  0.00    +0.046 A 
ATOM     12  C   UNL     1      -4.523  -3.502  -1.678  0.00  0.00    +0.145 A 
ATOM     13  N   UNL     1      -3.350  -3.132  -2.136  0.00  0.00    -0.173 NA
ATOM     14  N   UNL     1      -2.779  -2.214  -1.248  0.00  0.00    -0.221 N 
ATOM     15  C   UNL     1      -1.593  -1.536  -1.262  0.00  0.00    +0.124 A 
BRANCH  11  16
ATOM     16  C   UNL     1      -5.979  -2.974   0.375  0.00  0.00    -0.006 A 
ATOM     17  C   UNL     1      -7.250  -2.857  -0.178  0.00  0.00    +0.016 A 
ATOM     18  C   UNL     1      -8.330  -2.985   0.626  0.00  0.00    +0.046 A 
ATOM     19  S   UNL     1      -7.582  -3.280   2.219  0.00  0.00    -0.104 S 
ATOM     20  C   UNL     1      -5.871  -3.220   1.715  0.00  0.00    +0.053 A 
ENDBRANCH  11  16
ENDBRANCH   6   7
BRANCH   3  21
ATOM     21  O   UNL     1       3.548   2.136  -0.159  0.00  0.00    -0.491 OA
BRANCH  21  22
ATOM     22  C   UNL     1       4.746   1.366  -0.047  0.00  0.00    +0.244 C 
BRANCH  22  23
ATOM     23  C   UNL     1       5.956   2.302  -0.044  0.00  0.00    +0.125 C 
BRANCH  23  24
ATOM     24  N   UNL     1       5.922   3.143   1.160  0.00  0.00    -0.295 NA
ATOM     25  C   UNL     1       6.764   4.336   0.994  0.00  0.00    +0.112 C 
ATOM     26  C   UNL     1       6.653   5.211   2.245  0.00  0.00    +0.175 C 
ATOM     27  O   UNL     1       7.024   4.443   3.393  0.00  0.00    -0.377 OA
ATOM     28  C   UNL     1       6.224   3.273   3.585  0.00  0.00    +0.175 C 
ATOM     29  C   UNL     1       6.331   2.378   2.348  0.00  0.00    +0.112 C 
ENDBRANCH  23  24
ENDBRANCH  22  23
ENDBRANCH  21  22
ENDBRANCH   3  21
TORSDOF 6
