REMARK  Name = CHEMBL427025
REMARK  3 active torsions:
REMARK  status: ('A' for Active; 'I' for Inactive)
REMARK    1  A    between atoms: C_2  and  N_14
REMARK    2  A    between atoms: C_10  and  N_13
REMARK    3  A    between atoms: C_18  and  C_20
REMARK                            x       y       z     vdW  Elec       q    Type
REMARK                         _______ _______ _______ _____ _____    ______ ____
ROOT
ATOM      1  C   UNL     1      -2.453   1.243   0.026  0.00  0.00    +0.085 A 
ATOM      2  C   UNL     1      -2.309  -0.141   0.016  0.00  0.00    +0.129 A 
ATOM      3  N   UNL     1      -1.083  -0.663   0.026  0.00  0.00    -0.222 NA
ATOM      4  C   UNL     1      -0.019   0.112   0.045  0.00  0.00    +0.199 A 
ATOM      5  N   UNL     1      -0.114   1.427   0.055  0.00  0.00    -0.334 N 
ATOM      6  C   UNL     1      -1.302   2.026   0.039  0.00  0.00    +0.103 A 
ATOM      7  N   UNL     1      -1.393   3.409   0.049  0.00  0.00    -0.317 N 
ATOM      8  C   UNL     1      -0.187   4.239  -0.077  0.00  0.00    +0.105 C 
ATOM      9  C   UNL     1      -0.387   5.228  -1.230  0.00  0.00    +0.003 C 
ATOM     10  C   UNL     1      -1.675   6.021  -0.999  0.00  0.00    -0.072 C 
ATOM     11  C   UNL     1      -2.868   5.063  -0.972  0.00  0.00    +0.003 C 
ATOM     12  C   UNL     1      -2.697   4.073   0.178  0.00  0.00    +0.105 C 
ATOM     13  H   UNL     1       0.693   1.965   0.069  0.00  0.00    +0.168 HD
ENDROOT
BRANCH   2  14
ATOM     14  N   UNL     1      -3.426  -0.966  -0.003  0.00  0.00    -0.279 N 
ATOM     15  C   UNL     1      -3.272  -2.334  -0.118  0.00  0.00    +0.165 A 
ATOM     16  N   UNL     1      -2.152  -3.032  -0.125  0.00  0.00    -0.232 NA
ATOM     17  C   UNL     1      -2.160  -4.338  -0.243  0.00  0.00    +0.139 A 
ATOM     18  C   UNL     1      -3.405  -4.938  -0.359  0.00  0.00    +0.110 A 
ATOM     19  S   UNL     1      -4.469  -3.506  -0.276  0.00  0.00    -0.042 S 
ATOM     20  H   UNL     1      -4.314  -0.581   0.065  0.00  0.00    +0.155 HD
BRANCH  18  21
ATOM     21  C   UNL     1      -3.743  -6.322  -0.501  0.00  0.00    +0.108 C 
ATOM     22  N   UNL     1      -4.012  -7.420  -0.613  0.00  0.00    -0.190 NA
ENDBRANCH  18  21
ENDBRANCH   2  14
BRANCH  10  23
ATOM     23  N   UNL     1      -1.853   6.993  -2.086  0.00  0.00    +0.380 N 
ATOM     24  H   UNL     1      -1.911   6.505  -2.967  0.00  0.00    -0.090 HD
ATOM     25  H   UNL     1      -2.702   7.516  -1.934  0.00  0.00    -0.090 HD
ATOM     26  H   UNL     1      -1.067   7.625  -2.103  0.00  0.00    -0.090 HD
ENDBRANCH  10  23
TORSDOF 3
