REMARK  Name = CHEMBL231168
REMARK  12 active torsions:
REMARK  status: ('A' for Active; 'I' for Inactive)
REMARK    1  A    between atoms: C_1  and  N_2
REMARK    2  A    between atoms: C_3  and  C_5
REMARK    3  A    between atoms: C_7  and  O_11
REMARK    4  A    between atoms: O_11  and  C_12
REMARK    5  A    between atoms: N_22  and  C_23
REMARK    6  A    between atoms: C_26  and  C_35
REMARK    7  A    between atoms: C_27  and  O_29
REMARK    8  A    between atoms: O_29  and  C_30
REMARK    9  A    between atoms: C_30  and  C_31
REMARK   10  A    between atoms: C_31  and  N_32
REMARK   11  A    between atoms: N_32  and  C_33
REMARK   12  A    between atoms: N_32  and  C_34
REMARK                            x       y       z     vdW  Elec       q    Type
REMARK                         _______ _______ _______ _____ _____    ______ ____
ROOT
ATOM      1  C   UNL     1      -3.346  -7.008   2.401  0.00  0.00    +0.131 A 
ATOM      2  C   UNL     1      -4.523  -6.548   1.819  0.00  0.00    +0.048 A 
ATOM      3  C   UNL     1      -5.346  -7.414   1.130  0.00  0.00    +0.031 A 
ATOM      4  C   UNL     1      -4.999  -8.751   1.012  0.00  0.00    +0.068 A 
ATOM      5  C   UNL     1      -3.812  -9.224   1.596  0.00  0.00    +0.094 A 
ATOM      6  C   UNL     1      -2.984  -8.337   2.288  0.00  0.00    +0.076 A 
ATOM      7  N   UNL     1      -3.734 -10.553   1.323  0.00  0.00    -0.214 NA
ATOM      8  C   UNL     1      -4.777 -10.921   0.623  0.00  0.00    +0.198 A 
ATOM      9  N   UNL     1      -5.591  -9.847   0.403  0.00  0.00    -0.326 N 
ATOM     10  H   UNL     1      -6.427  -9.850  -0.089  0.00  0.00    +0.169 HD
ATOM     11  N   UNL     1      -5.019 -12.204   0.174  0.00  0.00    -0.285 N 
ATOM     12  H   UNL     1      -5.771 -12.379  -0.413  0.00  0.00    +0.155 HD
ENDROOT
BRANCH  11  13
ATOM     13  C   UNL     1      -4.180 -13.251   0.567  0.00  0.00    +0.037 A 
ATOM     14  C   UNL     1      -2.844 -13.001   0.858  0.00  0.00    +0.024 A 
ATOM     15  C   UNL     1      -2.016 -14.036   1.246  0.00  0.00    +0.018 A 
ATOM     16  C   UNL     1      -2.512 -15.322   1.345  0.00  0.00    +0.096 A 
ATOM     17  C   UNL     1      -3.845 -15.578   1.056  0.00  0.00    +0.134 A 
ATOM     18  C   UNL     1      -4.681 -14.541   0.672  0.00  0.00    +0.069 A 
BRANCH  16  19
ATOM     19  C   UNL     1      -1.604 -16.448   1.768  0.00  0.00    +0.421 C 
ATOM     20  F   UNL     1      -0.319 -15.948   2.003  0.00  0.00    -0.166 F 
ATOM     21  F   UNL     1      -2.099 -17.031   2.940  0.00  0.00    -0.166 F 
ATOM     22  F   UNL     1      -1.552 -17.410   0.754  0.00  0.00    -0.166 F 
ENDBRANCH  16  19
BRANCH  17  23
ATOM     23  O   UNL     1      -4.331 -16.843   1.154  0.00  0.00    -0.493 OA
BRANCH  23  24
ATOM     24  C   UNL     1      -5.712 -17.033   0.841  0.00  0.00    +0.210 C 
BRANCH  24  25
ATOM     25  C   UNL     1      -6.074 -18.511   1.006  0.00  0.00    -0.038 C 
BRANCH  25  26
ATOM     26  N   UNL     1      -5.785 -18.934   2.383  0.00  0.00    +0.378 N 
ATOM     27  C   UNL     1      -6.718 -18.271   3.305  0.00  0.00    -0.096 C 
ATOM     28  C   UNL     1      -5.942 -20.390   2.490  0.00  0.00    -0.096 C 
ATOM     29  H   UNL     1      -4.838 -18.680   2.622  0.00  0.00    -0.082 HD
ENDBRANCH  25  26
ENDBRANCH  24  25
ENDBRANCH  23  24
ENDBRANCH  17  23
ENDBRANCH  11  13
BRANCH   1  30
ATOM     30  O   UNL     1      -2.544  -6.144   3.078  0.00  0.00    -0.456 OA
BRANCH  30  33
ATOM     31  C   UNL     1      -4.180  -6.224   6.337  0.00  0.00    +0.129 A 
ATOM     32  C   UNL     1      -3.926  -6.497   4.997  0.00  0.00    +0.079 A 
ATOM     33  C   UNL     1      -2.826  -5.904   4.384  0.00  0.00    +0.132 A 
ATOM     34  C   UNL     1      -2.023  -5.057   5.143  0.00  0.00    +0.066 A 
ATOM     35  C   UNL     1      -2.340  -4.834   6.471  0.00  0.00    +0.115 A 
ATOM     36  N   UNL     1      -3.390  -5.406   7.022  0.00  0.00    -0.250 NA
BRANCH  31  39
ATOM     37  C   UNL     1      -6.755  -7.198   8.962  0.00  0.00    +0.128 C 
ATOM     38  N   UNL     1      -5.602  -6.582   8.302  0.00  0.00    -0.313 N 
ATOM     39  C   UNL     1      -5.347  -6.847   7.005  0.00  0.00    +0.262 C 
ATOM     40  O   UNL     1      -6.074  -7.597   6.384  0.00  0.00    -0.269 OA
ATOM     41  H   UNL     1      -5.021  -5.984   8.798  0.00  0.00    +0.149 HD
ENDBRANCH  31  39
ENDBRANCH  30  33
ENDBRANCH   1  30
TORSDOF 9
