REMARK  Name = CHEMBL409673
REMARK  7 active torsions:
REMARK  status: ('A' for Active; 'I' for Inactive)
REMARK    1  A    between atoms: C_1  and  C_2
REMARK    2  A    between atoms: C_2  and  C_3
REMARK    3  A    between atoms: C_2  and  C_4
REMARK    4  A    between atoms: C_5  and  C_24
REMARK    5  A    between atoms: N_13  and  C_14
REMARK    6  A    between atoms: C_24  and  O_26
REMARK    7  A    between atoms: O_26  and  C_27
REMARK                            x       y       z     vdW  Elec       q    Type
REMARK                         _______ _______ _______ _____ _____    ______ ____
ROOT
ATOM      1  C   UNL     1      -1.420  -0.396   0.162  0.00  0.00    -0.001 A 
ATOM      2  C   UNL     1      -2.234  -0.359   1.313  0.00  0.00    +0.083 A 
ATOM      3  C   UNL     1      -3.038  -1.488   1.284  0.00  0.00    +0.128 A 
ATOM      4  N   UNL     1      -2.749  -2.194   0.181  0.00  0.00    -0.234 N 
ATOM      5  C   UNL     1      -1.759  -1.537  -0.528  0.00  0.00    +0.110 A 
ATOM      6  C   UNL     1      -1.304  -2.112  -1.741  0.00  0.00    +0.151 A 
ATOM      7  N   UNL     1      -1.837  -3.248  -2.157  0.00  0.00    -0.217 NA
ATOM      8  C   UNL     1      -2.792  -3.866  -1.464  0.00  0.00    +0.245 A 
ATOM      9  N   UNL     1      -3.250  -3.397  -0.336  0.00  0.00    -0.155 NA
ATOM     10  N   UNL     1      -0.316  -1.493  -2.479  0.00  0.00    -0.296 N 
ATOM     11  H   UNL     1       0.140  -0.714  -2.123  0.00  0.00    +0.154 HD
ENDROOT
BRANCH  10  12
ATOM     12  C   UNL     1       0.028  -1.989  -3.743  0.00  0.00    +0.051 A 
ATOM     13  C   UNL     1       1.330  -1.875  -4.211  0.00  0.00    +0.036 A 
ATOM     14  C   UNL     1       1.619  -2.386  -5.478  0.00  0.00    +0.020 A 
ATOM     15  C   UNL     1       2.829  -2.458  -6.299  0.00  0.00    +0.029 A 
ATOM     16  C   UNL     1       2.487  -3.072  -7.443  0.00  0.00    +0.085 A 
ATOM     17  N   UNL     1       1.158  -3.398  -7.420  0.00  0.00    -0.346 N 
ATOM     18  H   UNL     1       0.683  -3.848  -8.135  0.00  0.00    +0.167 HD
ATOM     19  C   UNL     1       0.595  -2.993  -6.231  0.00  0.00    +0.138 A 
ATOM     20  N   UNL     1      -0.632  -3.075  -5.735  0.00  0.00    -0.236 NA
ATOM     21  C   UNL     1      -0.930  -2.606  -4.542  0.00  0.00    +0.136 A 
ENDBRANCH  10  12
BRANCH   1  23
ATOM     22  C   UNL     1      -1.046   1.992  -0.391  0.00  0.00    +0.012 C 
ATOM     23  C   UNL     1      -0.384   0.622  -0.239  0.00  0.00    +0.016 C 
ATOM     24  C   UNL     1       0.701   0.697   0.838  0.00  0.00    +0.012 C 
ENDBRANCH   1  23
BRANCH   2  25
ATOM     25  C   UNL     1      -2.231   0.685   2.353  0.00  0.00    +0.341 C 
ATOM     26  O   UNL     1      -1.395   1.566   2.327  0.00  0.00    -0.245 OA
BRANCH  25  27
ATOM     27  O   UNL     1      -3.154   0.661   3.334  0.00  0.00    -0.464 OA
ATOM     28  C   UNL     1      -3.091   1.704   4.309  0.00  0.00    +0.280 C 
ENDBRANCH  25  27
ENDBRANCH   2  25
TORSDOF 4
