REMARK  Name = CHEMBL502621
REMARK  8 active torsions:
REMARK  status: ('A' for Active; 'I' for Inactive)
REMARK    1  A    between atoms: C_1  and  N_2
REMARK    2  A    between atoms: N_2  and  C_3
REMARK    3  A    between atoms: N_2  and  C_4
REMARK    4  A    between atoms: C_10  and  C_12
REMARK    5  A    between atoms: C_17  and  O_21
REMARK    6  A    between atoms: O_21  and  C_22
REMARK    7  A    between atoms: C_25  and  N_29
REMARK    8  A    between atoms: N_35  and  C_38
REMARK                            x       y       z     vdW  Elec       q    Type
REMARK                         _______ _______ _______ _____ _____    ______ ____
ROOT
ATOM      1  C   UNL     1      -9.678  -2.263  -4.529  0.00  0.00    +0.164 A 
ATOM      2  C   UNL     1      -9.563  -2.102  -5.901  0.00  0.00    +0.051 A 
ATOM      3  C   UNL     1     -10.697  -2.021  -6.685  0.00  0.00    +0.027 A 
ATOM      4  C   UNL     1     -11.954  -2.100  -6.099  0.00  0.00    +0.038 A 
ATOM      5  C   UNL     1     -12.070  -2.261  -4.725  0.00  0.00    +0.065 A 
ATOM      6  C   UNL     1     -10.934  -2.348  -3.942  0.00  0.00    +0.167 A 
ATOM      7  F   UNL     1     -11.046  -2.509  -2.605  0.00  0.00    -0.202 F 
ENDROOT
BRANCH   4   8
ATOM      8  N   UNL     1     -13.104  -2.017  -6.895  0.00  0.00    -0.269 N 
ATOM      9  C   UNL     1     -14.258  -1.565  -6.366  0.00  0.00    +0.314 C 
ATOM     10  O   UNL     1     -14.341  -1.364  -5.170  0.00  0.00    -0.252 OA
ATOM     11  N   UNL     1     -15.321  -1.336  -7.162  0.00  0.00    -0.208 N 
ATOM     12  C   UNL     1     -15.393  -1.649  -8.598  0.00  0.00    +0.139 C 
ATOM     13  C   UNL     1     -16.806  -1.189  -9.005  0.00  0.00    +0.135 C 
ATOM     14  N   UNL     1     -17.380  -0.665  -7.756  0.00  0.00    -0.254 N 
ATOM     15  C   UNL     1     -16.481  -0.792  -6.772  0.00  0.00    +0.317 C 
ATOM     16  O   UNL     1     -16.697  -0.441  -5.628  0.00  0.00    -0.252 OA
ATOM     17  H   UNL     1     -13.070  -2.284  -7.827  0.00  0.00    +0.156 HD
BRANCH  14  18
ATOM     18  C   UNL     1     -18.664  -0.127  -7.618  0.00  0.00    +0.038 A 
ATOM     19  C   UNL     1     -19.025   0.519  -6.442  0.00  0.00    +0.023 A 
ATOM     20  C   UNL     1     -20.293   1.050  -6.308  0.00  0.00    +0.002 A 
ATOM     21  C   UNL     1     -21.203   0.939  -7.343  0.00  0.00    +0.000 A 
ATOM     22  C   UNL     1     -20.847   0.297  -8.515  0.00  0.00    +0.002 A 
ATOM     23  C   UNL     1     -19.579  -0.231  -8.658  0.00  0.00    +0.023 A 
ENDBRANCH  14  18
ENDBRANCH   4   8
BRANCH   1  24
ATOM     24  O   UNL     1      -8.561  -2.343  -3.757  0.00  0.00    -0.452 OA
BRANCH  24  30
ATOM     25  C   UNL     1      -4.712  -3.874  -1.207  0.00  0.00    +0.077 A 
ATOM     26  C   UNL     1      -5.455  -5.009  -1.311  0.00  0.00    +0.049 A 
ATOM     27  C   UNL     1      -6.681  -4.984  -1.999  0.00  0.00    +0.082 A 
ATOM     28  C   UNL     1      -7.045  -3.731  -2.540  0.00  0.00    +0.080 A 
ATOM     29  S   UNL     1      -5.702  -2.670  -2.074  0.00  0.00    -0.078 S 
ATOM     30  C   UNL     1      -8.226  -3.554  -3.244  0.00  0.00    +0.146 A 
ATOM     31  C   UNL     1      -9.059  -4.657  -3.406  0.00  0.00    +0.067 A 
ATOM     32  C   UNL     1      -8.664  -5.869  -2.858  0.00  0.00    +0.115 A 
ATOM     33  N   UNL     1      -7.544  -6.008  -2.199  0.00  0.00    -0.254 NA
BRANCH  25  39
ATOM     34  C   UNL     1      -1.606  -0.621   0.372  0.00  0.00    -0.050 C 
ATOM     35  C   UNL     1      -2.375  -0.112  -0.875  0.00  0.00    +0.005 C 
ATOM     36  C   UNL     1      -3.372  -1.256  -1.157  0.00  0.00    +0.106 C 
ATOM     37  N   UNL     1      -2.828  -2.472  -0.535  0.00  0.00    -0.299 N 
ATOM     38  C   UNL     1      -1.536  -2.144   0.096  0.00  0.00    +0.093 C 
ATOM     39  C   UNL     1      -3.415  -3.685  -0.538  0.00  0.00    +0.253 C 
ATOM     40  O   UNL     1      -2.872  -4.625   0.012  0.00  0.00    -0.269 OA
BRANCH  34  42
ATOM     41  C   UNL     1      -0.367   1.422   0.589  0.00  0.00    -0.096 C 
ATOM     42  N   UNL     1      -0.260  -0.035   0.436  0.00  0.00    +0.379 N 
ATOM     43  C   UNL     1       0.464  -0.596   1.584  0.00  0.00    -0.096 C 
ATOM     44  H   UNL     1       0.240  -0.248  -0.414  0.00  0.00    -0.082 HD
ENDBRANCH  34  42
ENDBRANCH  25  39
ENDBRANCH  24  30
ENDBRANCH   1  24
TORSDOF 6
