REMARK  Name = CHEMBL246151
REMARK  9 active torsions:
REMARK  status: ('A' for Active; 'I' for Inactive)
REMARK    1  A    between atoms: C_1  and  C_2
REMARK    2  A    between atoms: C_2  and  C_3
REMARK    3  A    between atoms: C_2  and  C_4
REMARK    4  A    between atoms: C_8  and  C_10
REMARK    5  A    between atoms: N_12  and  C_13
REMARK    6  A    between atoms: C_15  and  O_20
REMARK    7  A    between atoms: O_20  and  C_21
REMARK    8  A    between atoms: C_22  and  C_27
REMARK    9  A    between atoms: N_33  and  C_34
REMARK                            x       y       z     vdW  Elec       q    Type
REMARK                         _______ _______ _______ _____ _____    ______ ____
ROOT
ATOM      1  C   UNL     1      -5.453  -3.863  -3.159  0.00  0.00    +0.056 A 
ATOM      2  C   UNL     1      -4.646  -4.228  -4.227  0.00  0.00    +0.071 A 
ATOM      3  C   UNL     1      -5.178  -4.963  -5.275  0.00  0.00    +0.132 A 
ATOM      4  C   UNL     1      -6.516  -5.332  -5.255  0.00  0.00    +0.048 A 
ATOM      5  C   UNL     1      -7.319  -4.968  -4.190  0.00  0.00    +0.025 A 
ATOM      6  C   UNL     1      -6.791  -4.239  -3.141  0.00  0.00    +0.062 A 
ATOM      7 CL   UNL     1      -7.801  -3.790  -1.802  0.00  0.00    -0.082 Cl
ENDROOT
BRANCH   1  10
ATOM      8  C   UNL     1      -3.966  -2.199  -2.335  0.00  0.00    +0.248 C 
ATOM      9  O   UNL     1      -3.511  -2.067  -3.455  0.00  0.00    -0.270 OA
ATOM     10  N   UNL     1      -4.920  -3.122  -2.099  0.00  0.00    -0.280 N 
ATOM     11  H   UNL     1      -5.236  -3.272  -1.195  0.00  0.00    +0.155 HD
BRANCH   8  16
ATOM     12  C   UNL     1      -2.028   0.400  -0.440  0.00  0.00    -0.044 A 
ATOM     13  C   UNL     1      -2.547   0.248   0.834  0.00  0.00    +0.004 A 
ATOM     14  C   UNL     1      -3.527  -0.698   1.079  0.00  0.00    +0.001 A 
ATOM     15  C   UNL     1      -3.992  -1.496   0.054  0.00  0.00    +0.013 A 
ATOM     16  C   UNL     1      -3.473  -1.347  -1.233  0.00  0.00    +0.037 A 
ATOM     17  C   UNL     1      -2.488  -0.387  -1.475  0.00  0.00    +0.017 A 
BRANCH  12  19
ATOM     18  C   UNL     1      -1.497   2.820  -0.343  0.00  0.00    +0.012 C 
ATOM     19  C   UNL     1      -0.961   1.432  -0.698  0.00  0.00    +0.013 C 
ATOM     20  C   UNL     1       0.266   1.124   0.163  0.00  0.00    +0.012 C 
ENDBRANCH  12  19
ENDBRANCH   8  16
ENDBRANCH   1  10
BRANCH   3  21
ATOM     21  O   UNL     1      -4.390  -5.322  -6.323  0.00  0.00    -0.437 OA
BRANCH  21  22
ATOM     22  C   UNL     1      -3.503  -6.330  -6.136  0.00  0.00    +0.228 A 
ATOM     23  C   UNL     1      -2.743  -6.796  -7.216  0.00  0.00    +0.044 A 
ATOM     24  C   UNL     1      -1.836  -7.834  -7.003  0.00  0.00    +0.015 A 
ATOM     25  C   UNL     1      -1.726  -8.361  -5.726  0.00  0.00    +0.021 A 
ATOM     26  C   UNL     1      -2.510  -7.848  -4.710  0.00  0.00    +0.114 A 
ATOM     27  N   UNL     1      -3.358  -6.862  -4.935  0.00  0.00    -0.220 NA
BRANCH  23  28
ATOM     28  C   UNL     1      -2.901  -6.197  -8.564  0.00  0.00    -0.008 A 
ATOM     29  C   UNL     1      -4.170  -6.034  -9.133  0.00  0.00    +0.028 A 
ATOM     30  C   UNL     1      -4.276  -5.473 -10.387  0.00  0.00    +0.113 A 
ATOM     31  N   UNL     1      -3.202  -5.090 -11.054  0.00  0.00    -0.240 NA
ATOM     32  C   UNL     1      -1.983  -5.226 -10.555  0.00  0.00    +0.119 A 
ATOM     33  C   UNL     1      -1.789  -5.777  -9.294  0.00  0.00    +0.052 A 
ATOM     34  N   UNL     1      -0.885  -4.808 -11.298  0.00  0.00    -0.332 N 
ATOM     35  C   UNL     1       0.468  -4.954 -10.753  0.00  0.00    +0.127 C 
ATOM     36  H   UNL     1      -1.014  -4.419 -12.177  0.00  0.00    +0.147 HD
ENDBRANCH  23  28
ENDBRANCH  21  22
ENDBRANCH   3  21
TORSDOF 6
