REMARK  Name = CHEMBL24409
REMARK  8 active torsions:
REMARK  status: ('A' for Active; 'I' for Inactive)
REMARK    1  A    between atoms: C_1  and  N_2
REMARK    2  A    between atoms: C_5  and  C_8
REMARK    3  A    between atoms: C_8  and  O_9
REMARK    4  A    between atoms: O_9  and  C_10
REMARK    5  A    between atoms: C_15  and  O_16
REMARK    6  A    between atoms: O_16  and  C_17
REMARK    7  A    between atoms: N_22  and  C_23
REMARK    8  A    between atoms: C_25  and  O_31
REMARK                            x       y       z     vdW  Elec       q    Type
REMARK                         _______ _______ _______ _____ _____    ______ ____
ROOT
ATOM      1  C   UNL     1       1.270  -6.011   1.874  0.00  0.00    +0.164 A 
ATOM      2  C   UNL     1       0.935  -6.780   0.782  0.00  0.00    +0.078 A 
ATOM      3  C   UNL     1       0.854  -8.171   0.916  0.00  0.00    +0.080 A 
ATOM      4  C   UNL     1       1.118  -8.766   2.175  0.00  0.00    +0.044 A 
ATOM      5  C   UNL     1       1.457  -7.962   3.269  0.00  0.00    +0.062 A 
ATOM      6  C   UNL     1       1.536  -6.607   3.115  0.00  0.00    +0.162 A 
ATOM      7  C   UNL     1       1.029 -10.175   2.280  0.00  0.00    +0.134 A 
ATOM      8  N   UNL     1       0.703 -10.865   1.195  0.00  0.00    -0.220 NA
ATOM      9  C   UNL     1       0.464 -10.266   0.040  0.00  0.00    +0.223 A 
ATOM     10  N   UNL     1       0.531  -8.966  -0.117  0.00  0.00    -0.235 NA
ATOM     11  N   UNL     1       1.276 -10.813   3.479  0.00  0.00    -0.297 N 
ATOM     12  H   UNL     1       1.420 -10.293   4.284  0.00  0.00    +0.154 HD
ENDROOT
BRANCH  11  13
ATOM     13  C   UNL     1       1.317 -12.211   3.531  0.00  0.00    +0.072 A 
ATOM     14  C   UNL     1       1.504 -12.945   2.368  0.00  0.00    +0.073 A 
ATOM     15  C   UNL     1       1.545 -14.329   2.424  0.00  0.00    +0.137 A 
ATOM     16  C   UNL     1       1.399 -14.979   3.642  0.00  0.00    +0.085 A 
ATOM     17  C   UNL     1       1.213 -14.248   4.801  0.00  0.00    +0.064 A 
ATOM     18  C   UNL     1       1.177 -12.866   4.750  0.00  0.00    +0.146 A 
ATOM     19  F   UNL     1       1.002 -12.153   5.884  0.00  0.00    -0.203 F 
ATOM     20 CL   UNL     1       1.450 -16.713   3.710  0.00  0.00    -0.080 Cl
BRANCH  15  21
ATOM     21  O   UNL     1       1.727 -15.050   1.286  0.00  0.00    -0.505 OA
ATOM     22  H   UNL     1       2.654 -15.228   1.077  0.00  0.00    +0.292 HD
ENDBRANCH  15  21
ENDBRANCH  11  13
BRANCH   6  23
ATOM     23  O   UNL     1       1.871  -5.827   4.177  0.00  0.00    -0.491 OA
ATOM     24  C   UNL     1       2.130  -6.493   5.415  0.00  0.00    +0.277 C 
ENDBRANCH   6  23
BRANCH   1  25
ATOM     25  O   UNL     1       1.349  -4.661   1.746  0.00  0.00    -0.488 OA
BRANCH  25  26
ATOM     26  C   UNL     1       1.067  -4.114   0.457  0.00  0.00    +0.232 C 
BRANCH  26  31
ATOM     27  C   UNL     1       2.634   1.264  -0.614  0.00  0.00    -0.096 C 
ATOM     28  N   UNL     1       2.418  -0.188  -0.565  0.00  0.00    +0.378 N 
ATOM     29  C   UNL     1       0.999  -0.478  -0.807  0.00  0.00    -0.079 C 
ATOM     30  C   UNL     1       0.783  -1.993  -0.838  0.00  0.00    -0.012 C 
ATOM     31  C   UNL     1       1.206  -2.591   0.507  0.00  0.00    +0.023 C 
ATOM     32  C   UNL     1       2.665  -2.219   0.784  0.00  0.00    -0.012 C 
ATOM     33  C   UNL     1       2.812  -0.696   0.755  0.00  0.00    -0.079 C 
ATOM     34  H   UNL     1       2.977  -0.634  -1.276  0.00  0.00    -0.082 HD
ENDBRANCH  26  31
ENDBRANCH  25  26
ENDBRANCH   1  25
TORSDOF 6
