REMARK  Name = CHEMBL333640
REMARK  12 active torsions:
REMARK  status: ('A' for Active; 'I' for Inactive)
REMARK    1  A    between atoms: C_1  and  O_2
REMARK    2  A    between atoms: O_2  and  C_3
REMARK    3  A    between atoms: C_3  and  C_4
REMARK    4  A    between atoms: C_4  and  N_5
REMARK    5  A    between atoms: N_5  and  C_6
REMARK    6  A    between atoms: N_5  and  C_29
REMARK    7  A    between atoms: C_6  and  C_7
REMARK    8  A    between atoms: C_7  and  O_8
REMARK    9  A    between atoms: O_8  and  C_9
REMARK   10  A    between atoms: C_12  and  C_15
REMARK   11  A    between atoms: C_19  and  C_24
REMARK   12  A    between atoms: C_29  and  C_30
REMARK                            x       y       z     vdW  Elec       q    Type
REMARK                         _______ _______ _______ _____ _____    ______ ____
ROOT
ATOM      1  C   UNL     1      -1.052  -3.287   3.077  0.00  0.00    +0.121 A 
ATOM      2  C   UNL     1       0.072  -3.935   3.572  0.00  0.00    +0.046 A 
ATOM      3  C   UNL     1       0.341  -3.916   4.924  0.00  0.00    +0.012 A 
ATOM      4  C   UNL     1      -0.517  -3.247   5.795  0.00  0.00    -0.015 A 
ATOM      5  C   UNL     1      -1.644  -2.597   5.295  0.00  0.00    +0.012 A 
ATOM      6  C   UNL     1      -1.905  -2.615   3.941  0.00  0.00    +0.046 A 
ENDROOT
BRANCH   4   7
ATOM      7  C   UNL     1      -0.230  -3.225   7.251  0.00  0.00    +0.018 A 
ATOM      8  C   UNL     1      -0.253  -4.421   8.001  0.00  0.00    +0.123 A 
ATOM      9  N   UNL     1       0.001  -4.396   9.287  0.00  0.00    -0.235 NA
ATOM     10  C   UNL     1       0.284  -3.247   9.912  0.00  0.00    +0.163 A 
ATOM     11  C   UNL     1       0.585  -2.947  11.245  0.00  0.00    +0.046 A 
ATOM     12  C   UNL     1       0.795  -1.568  11.323  0.00  0.00    +0.145 A 
ATOM     13  N   UNL     1       0.637  -1.046  10.130  0.00  0.00    -0.173 NA
ATOM     14  N   UNL     1       0.318  -2.061   9.222  0.00  0.00    -0.221 N 
ATOM     15  C   UNL     1       0.064  -2.049   7.880  0.00  0.00    +0.124 A 
BRANCH  11  16
ATOM     16  C   UNL     1       0.666  -3.915  12.367  0.00  0.00    -0.006 A 
ATOM     17  C   UNL     1       1.768  -3.927  13.217  0.00  0.00    +0.016 A 
ATOM     18  C   UNL     1       1.805  -4.823  14.230  0.00  0.00    +0.046 A 
ATOM     19  S   UNL     1       0.264  -5.697  14.018  0.00  0.00    -0.104 S 
ATOM     20  C   UNL     1      -0.342  -4.809  12.593  0.00  0.00    +0.053 A 
ENDBRANCH  11  16
ENDBRANCH   4   7
BRANCH   1  21
ATOM     21  O   UNL     1      -1.314  -3.308   1.744  0.00  0.00    -0.491 OA
BRANCH  21  22
ATOM     22  C   UNL     1      -0.395  -4.018   0.912  0.00  0.00    +0.244 C 
BRANCH  22  23
ATOM     23  C   UNL     1      -0.852  -3.930  -0.545  0.00  0.00    +0.126 C 
BRANCH  23  24
ATOM     24  N   UNL     1      -0.785  -2.534  -0.996  0.00  0.00    -0.293 NA
BRANCH  24  25
ATOM     25  C   UNL     1       0.605  -2.061  -1.037  0.00  0.00    +0.113 C 
BRANCH  25  26
ATOM     26  C   UNL     1       0.622  -0.533  -1.117  0.00  0.00    +0.174 C 
BRANCH  26  28
ATOM     27  C   UNL     1       0.028   1.441   0.106  0.00  0.00    +0.194 C 
ATOM     28  O   UNL     1       0.060   0.013   0.079  0.00  0.00    -0.382 OA
ENDBRANCH  26  28
ENDBRANCH  25  26
ENDBRANCH  24  25
BRANCH  24  29
ATOM     29  C   UNL     1      -1.435  -2.370  -2.303  0.00  0.00    +0.119 C 
BRANCH  29  30
ATOM     30  C   UNL     1      -2.929  -2.489  -2.139  0.00  0.00    -0.033 A 
ATOM     31  C   UNL     1      -3.554  -3.702  -2.358  0.00  0.00    +0.005 A 
ATOM     32  C   UNL     1      -4.924  -3.811  -2.208  0.00  0.00    +0.000 A 
ATOM     33  C   UNL     1      -5.668  -2.706  -1.839  0.00  0.00    +0.000 A 
ATOM     34  C   UNL     1      -5.043  -1.493  -1.619  0.00  0.00    +0.000 A 
ATOM     35  C   UNL     1      -3.672  -1.385  -1.765  0.00  0.00    +0.005 A 
ENDBRANCH  29  30
ENDBRANCH  24  29
ENDBRANCH  23  24
ENDBRANCH  22  23
ENDBRANCH  21  22
ENDBRANCH   1  21
TORSDOF 11
