REMARK  Name = CHEMBL1172838
REMARK  4 active torsions:
REMARK  status: ('A' for Active; 'I' for Inactive)
REMARK    1  A    between atoms: C_6  and  C_11
REMARK    2  A    between atoms: C_14  and  N_17
REMARK    3  A    between atoms: N_20  and  C_21
REMARK    4  A    between atoms: C_31  and  C_32
REMARK                            x       y       z     vdW  Elec       q    Type
REMARK                         _______ _______ _______ _____ _____    ______ ____
ROOT
ATOM      1  N   UNL     1       8.180  -5.117   2.107  0.00  0.00    -0.269 N 
ATOM      2  C   UNL     1       8.346  -6.439   1.906  0.00  0.00    +0.308 C 
ATOM      3  O   UNL     1       7.491  -7.223   2.272  0.00  0.00    -0.252 OA
ATOM      4  N   UNL     1       9.461  -6.894   1.299  0.00  0.00    -0.269 N 
ATOM      5  H   UNL     1       8.825  -4.487   1.750  0.00  0.00    +0.156 HD
ATOM      6  H   UNL     1      10.176  -6.278   1.075  0.00  0.00    +0.156 HD
ENDROOT
BRANCH   4   7
ATOM      7  C   UNL     1       9.586  -8.253   0.993  0.00  0.00    +0.037 A 
ATOM      8  C   UNL     1       8.463  -8.982   0.611  0.00  0.00    +0.024 A 
ATOM      9  C   UNL     1       8.580 -10.322   0.309  0.00  0.00    +0.012 A 
ATOM     10  C   UNL     1       9.823 -10.943   0.386  0.00  0.00    +0.008 A 
ATOM     11  C   UNL     1      10.959 -10.215   0.769  0.00  0.00    +0.043 A 
ATOM     12  C   UNL     1      10.828  -8.864   1.066  0.00  0.00    +0.047 A 
ATOM     13  N   UNL     1      12.063 -11.058   0.767  0.00  0.00    -0.281 N 
ATOM     14  C   UNL     1      11.725 -12.307   0.403  0.00  0.00    +0.249 C 
ATOM     15  O   UNL     1      12.483 -13.256   0.313  0.00  0.00    -0.270 OA
ATOM     16  C   UNL     1      10.281 -12.327   0.135  0.00  0.00    +0.048 C 
ATOM     17  C   UNL     1       9.516 -13.406  -0.266  0.00  0.00    +0.039 C 
ATOM     18  H   UNL     1      12.963 -10.781   0.998  0.00  0.00    +0.155 HD
BRANCH  17  19
ATOM     19  C   UNL     1       9.922 -14.717   0.059  0.00  0.00    +0.040 A 
ATOM     20  C   UNL     1       9.346 -15.892  -0.401  0.00  0.00    +0.027 A 
ATOM     21  C   UNL     1      10.059 -16.948   0.170  0.00  0.00    +0.019 A 
ATOM     22  C   UNL     1      11.035 -16.421   0.950  0.00  0.00    +0.083 A 
ATOM     23  N   UNL     1      10.966 -15.067   0.888  0.00  0.00    -0.361 N 
ATOM     24  H   UNL     1      11.553 -14.448   1.350  0.00  0.00    +0.165 HD
ENDBRANCH  17  19
ENDBRANCH   4   7
BRANCH   1  28
ATOM     25  C   UNL     1       4.891  -3.735   4.264  0.00  0.00    -0.018 A 
ATOM     26  C   UNL     1       5.497  -4.941   4.612  0.00  0.00    +0.010 A 
ATOM     27  C   UNL     1       6.585  -5.396   3.897  0.00  0.00    +0.024 A 
ATOM     28  C   UNL     1       7.077  -4.654   2.831  0.00  0.00    +0.035 A 
ATOM     29  C   UNL     1       6.474  -3.451   2.482  0.00  0.00    +0.024 A 
ATOM     30  C   UNL     1       5.383  -2.994   3.190  0.00  0.00    +0.010 A 
BRANCH  25  36
ATOM     31  C   UNL     1      -0.058  -2.546   8.220  0.00  0.00    +0.001 A 
ATOM     32  C   UNL     1       0.538  -3.751   8.586  0.00  0.00    +0.001 A 
ATOM     33  C   UNL     1       1.613  -4.235   7.907  0.00  0.00    +0.008 A 
ATOM     34  C   UNL     1       2.132  -3.511   6.819  0.00  0.00    -0.017 A 
ATOM     35  C   UNL     1       3.240  -3.982   6.096  0.00  0.00    +0.017 A 
ATOM     36  C   UNL     1       3.721  -3.243   5.032  0.00  0.00    -0.017 A 
ATOM     37  C   UNL     1       3.113  -2.029   4.672  0.00  0.00    +0.009 A 
ATOM     38  C   UNL     1       2.041  -1.556   5.359  0.00  0.00    +0.009 A 
ATOM     39  C   UNL     1       1.526  -2.285   6.446  0.00  0.00    -0.018 A 
ATOM     40  C   UNL     1       0.417  -1.818   7.172  0.00  0.00    +0.008 A 
ENDBRANCH  25  36
ENDBRANCH   1  28
TORSDOF 4
