REMARK  Name = CHEMBL234452
REMARK  7 active torsions:
REMARK  status: ('A' for Active; 'I' for Inactive)
REMARK    1  A    between atoms: C_1  and  N_2
REMARK    2  A    between atoms: N_2  and  C_3
REMARK    3  A    between atoms: N_2  and  C_4
REMARK    4  A    between atoms: C_4  and  C_5
REMARK    5  A    between atoms: C_5  and  C_6
REMARK    6  A    between atoms: C_9  and  N_12
REMARK    7  A    between atoms: C_17  and  C_19
REMARK                            x       y       z     vdW  Elec       q    Type
REMARK                         _______ _______ _______ _____ _____    ______ ____
ROOT
ATOM      1  N   UNL     1       2.582  -1.987   7.085  0.00  0.00    -0.284 N 
ATOM      2  C   UNL     1       2.779  -3.346   7.272  0.00  0.00    +0.220 A 
ATOM      3  N   UNL     1       2.414  -4.189   6.317  0.00  0.00    -0.221 NA
ATOM      4  C   UNL     1       2.585  -5.495   6.457  0.00  0.00    +0.136 A 
ATOM      5  C   UNL     1       3.155  -5.983   7.619  0.00  0.00    +0.085 A 
ATOM      6  C   UNL     1       3.531  -5.069   8.611  0.00  0.00    +0.096 A 
ATOM      7  N   UNL     1       3.333  -3.768   8.398  0.00  0.00    -0.213 NA
ATOM      8 CL   UNL     1       3.397  -7.687   7.843  0.00  0.00    -0.080 Cl
ATOM      9  H   UNL     1       2.916  -1.354   7.739  0.00  0.00    +0.155 HD
ENDROOT
BRANCH   6  10
ATOM     10  C   UNL     1       4.144  -5.539   9.872  0.00  0.00    +0.027 A 
ATOM     11  C   UNL     1       5.164  -6.426   9.997  0.00  0.00    +0.093 A 
ATOM     12  N   UNL     1       5.455  -6.611  11.314  0.00  0.00    -0.360 N 
ATOM     13  H   UNL     1       6.147  -7.200  11.652  0.00  0.00    +0.165 HD
ATOM     14  C   UNL     1       4.623  -5.841  12.099  0.00  0.00    +0.047 A 
ATOM     15  C   UNL     1       3.771  -5.131  11.237  0.00  0.00    +0.009 A 
ATOM     16  C   UNL     1       2.818  -4.259  11.760  0.00  0.00    +0.010 A 
ATOM     17  C   UNL     1       2.719  -4.095  13.124  0.00  0.00    +0.001 A 
ATOM     18  C   UNL     1       3.563  -4.793  13.976  0.00  0.00    +0.002 A 
ATOM     19  C   UNL     1       4.504  -5.665  13.474  0.00  0.00    +0.026 A 
ENDBRANCH   6  10
BRANCH   1  23
ATOM     20  C   UNL     1       0.552  -0.622   3.714  0.00  0.00    -0.049 A 
ATOM     21  C   UNL     1       0.206  -1.834   4.284  0.00  0.00    +0.005 A 
ATOM     22  C   UNL     1       0.877  -2.289   5.402  0.00  0.00    +0.023 A 
ATOM     23  C   UNL     1       1.901  -1.529   5.953  0.00  0.00    +0.034 A 
ATOM     24  C   UNL     1       2.246  -0.313   5.378  0.00  0.00    +0.023 A 
ATOM     25  C   UNL     1       1.574   0.134   4.257  0.00  0.00    +0.005 A 
BRANCH  20  26
ATOM     26  C   UNL     1      -0.182  -0.128   2.495  0.00  0.00    +0.016 C 
BRANCH  26  27
ATOM     27  C   UNL     1       0.520  -0.637   1.235  0.00  0.00    -0.075 C 
BRANCH  27  29
ATOM     28  C   UNL     1      -0.102   1.309  -0.022  0.00  0.00    -0.097 C 
ATOM     29  N   UNL     1      -0.196  -0.156   0.046  0.00  0.00    +0.376 N 
ATOM     30  C   UNL     1       0.406  -0.742  -1.159  0.00  0.00    -0.097 C 
ATOM     31  H   UNL     1      -1.166  -0.428   0.104  0.00  0.00    -0.083 HD
ENDBRANCH  27  29
ENDBRANCH  26  27
ENDBRANCH  20  26
ENDBRANCH   1  23
TORSDOF 5
