REMARK  Name = CHEMBL453578
REMARK  6 active torsions:
REMARK  status: ('A' for Active; 'I' for Inactive)
REMARK    1  A    between atoms: C_1  and  C_2
REMARK    2  A    between atoms: C_6  and  N_8
REMARK    3  A    between atoms: N_11  and  C_12
REMARK    4  A    between atoms: C_15  and  C_18
REMARK    5  A    between atoms: C_22  and  C_28
REMARK    6  A    between atoms: C_26  and  N_27
REMARK                            x       y       z     vdW  Elec       q    Type
REMARK                         _______ _______ _______ _____ _____    ______ ____
ROOT
ATOM      1  C   UNL     1      -0.067  -6.218   3.647  0.00  0.00    +0.035 A 
ATOM      2  C   UNL     1      -0.056  -6.910   2.442  0.00  0.00    +0.024 A 
ATOM      3  C   UNL     1      -0.034  -8.289   2.437  0.00  0.00    +0.010 A 
ATOM      4  C   UNL     1      -0.022  -8.989   3.643  0.00  0.00    -0.013 A 
ATOM      5  C   UNL     1      -0.033  -8.292   4.851  0.00  0.00    +0.010 A 
ATOM      6  C   UNL     1      -0.050  -6.913   4.850  0.00  0.00    +0.024 A 
ENDROOT
BRANCH   4   7
ATOM      7  C   UNL     1       0.002 -10.471   3.640  0.00  0.00    +0.040 A 
ATOM      8  C   UNL     1      -1.081 -11.202   3.123  0.00  0.00    +0.125 A 
ATOM      9  N   UNL     1      -1.052 -12.516   3.124  0.00  0.00    -0.235 NA
ATOM     10  C   UNL     1      -0.004 -13.189   3.612  0.00  0.00    +0.165 A 
ATOM     11  C   UNL     1       0.265 -14.559   3.726  0.00  0.00    +0.048 A 
ATOM     12  C   UNL     1       1.527 -14.686   4.319  0.00  0.00    +0.145 A 
ATOM     13  N   UNL     1       2.005 -13.489   4.556  0.00  0.00    -0.171 NA
ATOM     14  N   UNL     1       1.080 -12.530   4.129  0.00  0.00    -0.200 N 
ATOM     15  C   UNL     1       1.100 -11.162   4.145  0.00  0.00    +0.129 A 
BRANCH  11  16
ATOM     16  C   UNL     1      -0.621 -15.667   3.299  0.00  0.00    +0.005 A 
ATOM     17  C   UNL     1      -0.125 -16.708   2.506  0.00  0.00    +0.011 A 
ATOM     18  C   UNL     1      -0.993 -17.720   2.134  0.00  0.00    +0.020 A 
ATOM     19  C   UNL     1      -2.311 -17.669   2.554  0.00  0.00    +0.111 A 
ATOM     20  N   UNL     1      -2.750 -16.675   3.300  0.00  0.00    -0.263 NA
ATOM     21  C   UNL     1      -1.961 -15.692   3.684  0.00  0.00    +0.119 A 
ENDBRANCH  11  16
BRANCH  15  22
ATOM     22  N   UNL     1       2.181 -10.482   4.655  0.00  0.00    -0.343 N 
ATOM     23  H   UNL     1       2.184  -9.512   4.666  0.00  0.00    +0.144 HD
ATOM     24  H   UNL     1       2.942 -10.973   5.005  0.00  0.00    +0.144 HD
ENDBRANCH  15  22
ENDBRANCH   4   7
BRANCH   1  28
ATOM     25  N   UNL     1      -0.679  -2.809   2.618  0.00  0.00    -0.269 N 
ATOM     26  C   UNL     1      -0.744  -4.154   2.676  0.00  0.00    +0.308 C 
ATOM     27  O   UNL     1      -1.391  -4.768   1.850  0.00  0.00    -0.252 OA
ATOM     28  N   UNL     1      -0.090  -4.819   3.650  0.00  0.00    -0.269 N 
ATOM     29  H   UNL     1      -0.103  -2.324   3.230  0.00  0.00    +0.156 HD
ATOM     30  H   UNL     1       0.364  -4.327   4.352  0.00  0.00    +0.156 HD
BRANCH  25  36
ATOM     31  C   UNL     1      -1.186   1.026  -0.416  0.00  0.00    +0.044 C 
ATOM     32  C   UNL     1      -1.713  -0.250   0.189  0.00  0.00    -0.049 A 
ATOM     33  C   UNL     1      -2.952  -0.733  -0.189  0.00  0.00    +0.003 A 
ATOM     34  C   UNL     1      -3.439  -1.903   0.363  0.00  0.00    +0.002 A 
ATOM     35  C   UNL     1      -2.688  -2.594   1.294  0.00  0.00    +0.023 A 
ATOM     36  C   UNL     1      -1.442  -2.112   1.675  0.00  0.00    +0.035 A 
ATOM     37  C   UNL     1      -0.954  -0.939   1.115  0.00  0.00    +0.026 A 
ENDBRANCH  25  36
ENDBRANCH   1  28
TORSDOF 5
