REMARK  Name = CHEMBL260092
REMARK  4 active torsions:
REMARK  status: ('A' for Active; 'I' for Inactive)
REMARK    1  A    between atoms: C_3  and  C_29
REMARK    2  A    between atoms: C_5  and  N_7
REMARK    3  A    between atoms: N_10  and  C_11
REMARK    4  A    between atoms: C_14  and  C_17
REMARK                            x       y       z     vdW  Elec       q    Type
REMARK                         _______ _______ _______ _____ _____    ______ ____
ROOT
ATOM      1  C   UNL     1      -1.026  -4.928   0.155  0.00  0.00    +0.035 A 
ATOM      2  C   UNL     1      -2.230  -4.282  -0.105  0.00  0.00    +0.024 A 
ATOM      3  C   UNL     1      -3.410  -4.992  -0.102  0.00  0.00    +0.011 A 
ATOM      4  C   UNL     1      -3.396  -6.366   0.162  0.00  0.00    -0.004 A 
ATOM      5  C   UNL     1      -2.182  -7.012   0.422  0.00  0.00    +0.011 A 
ATOM      6  C   UNL     1      -1.007  -6.295   0.412  0.00  0.00    +0.024 A 
ENDROOT
BRANCH   4   7
ATOM      7  C   UNL     1      -4.653  -7.129   0.167  0.00  0.00    +0.051 C 
ATOM      8  N   UNL     1      -5.708  -6.448   0.077  0.00  0.00    -0.245 NA
ATOM      9  C   UNL     1      -7.020  -6.702  -0.024  0.00  0.00    +0.143 A 
ATOM     10  C   UNL     1      -7.893  -5.587  -0.093  0.00  0.00    +0.147 A 
ATOM     11  N   UNL     1      -9.199  -5.783  -0.200  0.00  0.00    -0.219 NA
ATOM     12  C   UNL     1      -9.699  -7.001  -0.244  0.00  0.00    +0.225 A 
ATOM     13  N   UNL     1      -8.933  -8.067  -0.182  0.00  0.00    -0.219 NA
ATOM     14  C   UNL     1      -7.603  -7.971  -0.069  0.00  0.00    +0.149 A 
ATOM     15  N   UNL     1      -6.886  -9.140   0.003  0.00  0.00    -0.327 N 
ATOM     16  C   UNL     1      -5.563  -9.334  -0.544  0.00  0.00    +0.109 C 
ATOM     17  C   UNL     1      -4.514  -8.607   0.271  0.00  0.00    +0.074 C 
ATOM     18  N   UNL     1      -7.383  -4.300  -0.048  0.00  0.00    -0.341 N 
ATOM     19  H   UNL     1      -7.299  -9.891   0.457  0.00  0.00    +0.148 HD
ATOM     20  H   UNL     1      -6.426  -4.160   0.032  0.00  0.00    +0.144 HD
ATOM     21  H   UNL     1      -7.982  -3.539  -0.095  0.00  0.00    +0.144 HD
ENDBRANCH   4   7
BRANCH   1  25
ATOM     22  N   UNL     1       1.305  -2.191   0.475  0.00  0.00    -0.269 N 
ATOM     23  C   UNL     1       0.184  -2.930   0.591  0.00  0.00    +0.308 C 
ATOM     24  O   UNL     1      -0.813  -2.447   1.094  0.00  0.00    -0.252 OA
ATOM     25  N   UNL     1       0.167  -4.203   0.151  0.00  0.00    -0.269 N 
ATOM     26  H   UNL     1       2.080  -2.554   0.019  0.00  0.00    +0.156 HD
ATOM     27  H   UNL     1       0.985  -4.617  -0.168  0.00  0.00    +0.156 HD
BRANCH  22  32
ATOM     28  C   UNL     1       2.149   1.360   0.921  0.00  0.00    +0.002 A 
ATOM     29  C   UNL     1       1.442   1.654   2.073  0.00  0.00    +0.012 A 
ATOM     30  C   UNL     1       0.690   0.675   2.695  0.00  0.00    +0.057 A 
ATOM     31  C   UNL     1       0.643  -0.601   2.168  0.00  0.00    +0.035 A 
ATOM     32  C   UNL     1       1.351  -0.899   1.012  0.00  0.00    +0.035 A 
ATOM     33  C   UNL     1       2.105   0.087   0.389  0.00  0.00    +0.023 A 
BRANCH  30  34
ATOM     34  C   UNL     1      -0.078   1.000   3.951  0.00  0.00    +0.417 C 
ATOM     35  F   UNL     1       0.125   2.342   4.287  0.00  0.00    -0.166 F 
ATOM     36  F   UNL     1      -1.442   0.774   3.734  0.00  0.00    -0.166 F 
ATOM     37  F   UNL     1       0.370   0.184   4.995  0.00  0.00    -0.166 F 
ENDBRANCH  30  34
ENDBRANCH  22  32
ENDBRANCH   1  25
TORSDOF 4
