REMARK  Name = CHEMBL1079846
REMARK  8 active torsions:
REMARK  status: ('A' for Active; 'I' for Inactive)
REMARK    1  A    between atoms: C_1  and  O_2
REMARK    2  A    between atoms: O_2  and  C_3
REMARK    3  A    between atoms: C_6  and  C_36
REMARK    4  A    between atoms: C_8  and  N_9
REMARK    5  A    between atoms: N_12  and  C_13
REMARK    6  A    between atoms: C_17  and  C_19
REMARK    7  A    between atoms: N_28  and  C_29
REMARK    8  A    between atoms: C_29  and  C_30
REMARK                            x       y       z     vdW  Elec       q    Type
REMARK                         _______ _______ _______ _____ _____    ______ ____
ROOT
ATOM      1  C   UNL     1       1.063  -6.241   0.128  0.00  0.00    +0.035 A 
ATOM      2  C   UNL     1      -0.164  -6.892   0.129  0.00  0.00    +0.023 A 
ATOM      3  C   UNL     1      -0.218  -8.273   0.118  0.00  0.00    +0.002 A 
ATOM      4  C   UNL     1       0.947  -9.014   0.106  0.00  0.00    +0.010 A 
ATOM      5  C   UNL     1       2.183  -8.369   0.104  0.00  0.00    +0.004 A 
ATOM      6  C   UNL     1       2.238  -6.977   0.110  0.00  0.00    +0.033 A 
ENDROOT
BRANCH   5   7
ATOM      7  C   UNL     1       3.436  -9.163   0.091  0.00  0.00    +0.090 A 
ATOM      8  C   UNL     1       3.367 -10.520   0.076  0.00  0.00    +0.121 A 
ATOM      9  N   UNL     1       4.519 -11.260   0.064  0.00  0.00    -0.302 N 
ATOM     10  C   UNL     1       4.774 -12.597   0.048  0.00  0.00    +0.112 A 
ATOM     11  C   UNL     1       6.120 -12.745   0.042  0.00  0.00    +0.131 A 
ATOM     12  N   UNL     1       6.681 -11.535   0.055  0.00  0.00    -0.233 NA
ATOM     13  C   UNL     1       5.730 -10.617   0.068  0.00  0.00    +0.178 A 
ATOM     14  C   UNL     1       5.754  -9.198   0.084  0.00  0.00    +0.163 A 
ATOM     15  N   UNL     1       4.622  -8.527   0.090  0.00  0.00    -0.227 NA
ATOM     16  N   UNL     1       6.964  -8.522   0.089  0.00  0.00    -0.322 N 
ATOM     17  H   UNL     1       7.797  -9.019   0.081  0.00  0.00    +0.148 HD
BRANCH  16  18
ATOM     18  C   UNL     1       6.984  -7.058   0.106  0.00  0.00    +0.138 C 
BRANCH  18  19
ATOM     19  C   UNL     1       8.412  -6.575   0.107  0.00  0.00    -0.028 A 
ATOM     20  C   UNL     1       9.089  -6.367   1.299  0.00  0.00    +0.025 A 
ATOM     21  C   UNL     1      10.398  -5.924   1.261  0.00  0.00    +0.111 A 
ATOM     22  N   UNL     1      11.001  -5.700   0.111  0.00  0.00    -0.263 NA
ATOM     23  C   UNL     1      10.388  -5.887  -1.042  0.00  0.00    +0.111 A 
ATOM     24  C   UNL     1       9.081  -6.334  -1.083  0.00  0.00    +0.025 A 
ENDBRANCH  18  19
ENDBRANCH  16  18
ENDBRANCH   5   7
BRANCH   1  28
ATOM     25  N   UNL     1       0.158  -2.794   0.723  0.00  0.00    -0.266 N 
ATOM     26  C   UNL     1       0.173  -4.140   0.800  0.00  0.00    +0.308 C 
ATOM     27  O   UNL     1      -0.662  -4.720   1.467  0.00  0.00    -0.252 OA
ATOM     28  N   UNL     1       1.114  -4.843   0.139  0.00  0.00    -0.269 N 
ATOM     29  H   UNL     1       0.774  -2.336   0.130  0.00  0.00    +0.156 HD
ATOM     30  H   UNL     1       1.826  -4.379  -0.329  0.00  0.00    +0.156 HD
BRANCH  25  36
ATOM     31  C   UNL     1      -1.077  -0.753   1.136  0.00  0.00    +0.141 A 
ATOM     32  C   UNL     1      -1.978  -0.032   1.903  0.00  0.00    +0.048 A 
ATOM     33  C   UNL     1      -2.543  -0.604   3.028  0.00  0.00    +0.016 A 
ATOM     34  C   UNL     1      -2.211  -1.897   3.391  0.00  0.00    +0.057 A 
ATOM     35  C   UNL     1      -1.313  -2.623   2.631  0.00  0.00    +0.039 A 
ATOM     36  C   UNL     1      -0.748  -2.058   1.498  0.00  0.00    +0.077 A 
BRANCH  34  37
ATOM     37  C   UNL     1      -2.830  -2.515   4.618  0.00  0.00    +0.417 C 
ATOM     38  F   UNL     1      -3.698  -1.595   5.216  0.00  0.00    -0.166 F 
ATOM     39  F   UNL     1      -3.544  -3.661   4.253  0.00  0.00    -0.166 F 
ATOM     40  F   UNL     1      -1.822  -2.862   5.524  0.00  0.00    -0.166 F 
ENDBRANCH  34  37
BRANCH  31  42
ATOM     41  C   UNL     1      -0.905   1.149  -0.280  0.00  0.00    +0.277 C 
ATOM     42  O   UNL     1      -0.521  -0.192   0.030  0.00  0.00    -0.493 OA
ENDBRANCH  31  42
ENDBRANCH  25  36
ENDBRANCH   1  28
TORSDOF 7
