REMARK  Name = CHEMBL203907
REMARK  2 active torsions:
REMARK  status: ('A' for Active; 'I' for Inactive)
REMARK    1  A    between atoms: C_6  and  N_7
REMARK    2  A    between atoms: C_18  and  C_20
REMARK                            x       y       z     vdW  Elec       q    Type
REMARK                         _______ _______ _______ _____ _____    ______ ____
ROOT
ATOM      1  C   UNL     1      -0.016   1.387   0.010  0.00  0.00    +0.087 A 
ATOM      2  C   UNL     1       1.200   2.063  -0.002  0.00  0.00    +0.129 A 
ATOM      3  N   UNL     1       2.330   1.359  -0.023  0.00  0.00    -0.220 NA
ATOM      4  C   UNL     1       2.306   0.042  -0.033  0.00  0.00    +0.225 A 
ATOM      5  N   UNL     1       1.176  -0.634  -0.023  0.00  0.00    -0.221 NA
ATOM      6  C   UNL     1       0.003  -0.004  -0.001  0.00  0.00    +0.126 A 
ATOM      7  N   UNL     1       1.234   3.451   0.008  0.00  0.00    -0.279 N 
ATOM      8  C   UNL     1       2.445   4.112   0.105  0.00  0.00    +0.165 A 
ATOM      9  N   UNL     1       3.659   3.595   0.102  0.00  0.00    -0.232 NA
ATOM     10  C   UNL     1       4.725   4.351   0.201  0.00  0.00    +0.139 A 
ATOM     11  C   UNL     1       4.503   5.716   0.309  0.00  0.00    +0.110 A 
ATOM     12  S   UNL     1       2.719   5.766   0.246  0.00  0.00    -0.042 S 
ATOM     13  H   UNL     1       0.409   3.957  -0.052  0.00  0.00    +0.155 HD
ENDROOT
BRANCH   6  14
ATOM     14  N   UNL     1      -1.182  -0.724   0.010  0.00  0.00    -0.317 N 
ATOM     15  C   UNL     1      -1.120  -2.196   0.116  0.00  0.00    +0.104 C 
ATOM     16  C   UNL     1      -2.203  -2.728   1.072  0.00  0.00    -0.000 C 
ATOM     17  C   UNL     1      -2.323  -1.803   2.262  0.00  0.00    -0.081 C 
ATOM     18  N   UNL     1      -3.373  -0.819   2.005  0.00  0.00    +0.380 N 
ATOM     19  C   UNL     1      -2.944   0.348   1.335  0.00  0.00    -0.063 C 
ATOM     20  C   UNL     1      -2.436  -0.005  -0.077  0.00  0.00    +0.087 C 
ATOM     21  H   UNL     1      -4.092  -1.259   1.451  0.00  0.00    -0.086 HD
ATOM     22  H   UNL     1      -3.778  -0.548   2.889  0.00  0.00    -0.086 HD
ENDBRANCH   6  14
BRANCH  11  23
ATOM     23  C   UNL     1       5.444   6.789   0.431  0.00  0.00    +0.108 C 
ATOM     24  N   UNL     1       6.191   7.640   0.528  0.00  0.00    -0.190 NA
ENDBRANCH  11  23
TORSDOF 2
