REMARK  Name = CHEMBL372606
REMARK  12 active torsions:
REMARK  status: ('A' for Active; 'I' for Inactive)
REMARK    1  A    between atoms: C_1  and  O_2
REMARK    2  A    between atoms: O_2  and  C_3
REMARK    3  A    between atoms: C_3  and  C_4
REMARK    4  A    between atoms: C_4  and  O_5
REMARK    5  A    between atoms: O_5  and  C_6
REMARK    6  A    between atoms: C_11  and  O_12
REMARK    7  A    between atoms: O_12  and  C_13
REMARK    8  A    between atoms: C_14  and  N_18
REMARK    9  A    between atoms: C_22  and  O_26
REMARK   10  A    between atoms: O_26  and  C_27
REMARK   11  A    between atoms: C_27  and  C_28
REMARK   12  A    between atoms: C_29  and  C_30
REMARK                            x       y       z     vdW  Elec       q    Type
REMARK                         _______ _______ _______ _____ _____    ______ ____
ROOT
ATOM      1  N   UNL     1       2.344  -8.484  -2.205  0.00  0.00    -0.228 NA
ATOM      2  C   UNL     1       3.623  -8.711  -2.101  0.00  0.00    +0.098 C 
ATOM      3  C   UNL     1       4.460  -9.170  -3.284  0.00  0.00    +0.142 C 
ATOM      4  C   UNL     1       5.675  -8.269  -3.340  0.00  0.00    +0.203 C 
ATOM      5  C   UNL     1       6.345  -7.877  -2.085  0.00  0.00    +0.168 C 
ATOM      6  C   UNL     1       5.720  -7.990  -0.888  0.00  0.00    +0.102 C 
ATOM      7  C   UNL     1       4.356  -8.530  -0.818  0.00  0.00    +0.204 C 
ATOM      8  O   UNL     1       3.848  -8.822   0.249  0.00  0.00    -0.286 OA
ATOM      9  O   UNL     1       6.094  -7.875  -4.403  0.00  0.00    -0.288 OA
ENDROOT
BRANCH   1  16
ATOM     10  C   UNL     1       1.442  -3.832  -0.443  0.00  0.00    +0.164 A 
ATOM     11  C   UNL     1       0.804  -4.692   0.406  0.00  0.00    +0.078 A 
ATOM     12  C   UNL     1       0.873  -6.073   0.173  0.00  0.00    +0.080 A 
ATOM     13  C   UNL     1       1.607  -6.556  -0.944  0.00  0.00    +0.048 A 
ATOM     14  C   UNL     1       2.249  -5.654  -1.796  0.00  0.00    +0.063 A 
ATOM     15  C   UNL     1       2.161  -4.312  -1.549  0.00  0.00    +0.162 A 
ATOM     16  C   UNL     1       1.658  -7.958  -1.154  0.00  0.00    +0.164 A 
ATOM     17  N   UNL     1       1.017  -8.745  -0.293  0.00  0.00    -0.216 NA
ATOM     18  C   UNL     1       0.348  -8.245   0.731  0.00  0.00    +0.224 A 
ATOM     19  N   UNL     1       0.266  -6.957   0.974  0.00  0.00    -0.235 NA
BRANCH  15  20
ATOM     20  O   UNL     1       2.780  -3.433  -2.380  0.00  0.00    -0.491 OA
ATOM     21  C   UNL     1       3.496  -3.983  -3.488  0.00  0.00    +0.277 C 
ENDBRANCH  15  20
BRANCH  10  22
ATOM     22  O   UNL     1       1.374  -2.494  -0.216  0.00  0.00    -0.486 OA
BRANCH  22  23
ATOM     23  C   UNL     1       0.627  -2.066   0.924  0.00  0.00    +0.257 C 
BRANCH  23  24
ATOM     24  C   UNL     1       0.664  -0.539   1.015  0.00  0.00    +0.200 C 
BRANCH  24  26
ATOM     25  C   UNL     1      -0.036   1.449  -0.125  0.00  0.00    +0.194 C 
ATOM     26  O   UNL     1      -0.013   0.021  -0.112  0.00  0.00    -0.380 OA
ENDBRANCH  24  26
ENDBRANCH  23  24
ENDBRANCH  22  23
ENDBRANCH  10  22
ENDBRANCH   1  16
BRANCH   5  27
ATOM     27  O   UNL     1       7.609  -7.395  -2.130  0.00  0.00    -0.476 OA
BRANCH  27  28
ATOM     28  C   UNL     1       8.209  -7.031  -0.886  0.00  0.00    +0.318 C 
BRANCH  28  29
ATOM     29  C   UNL     1       9.573  -6.532  -1.126  0.00  0.00    -0.056 C 
ATOM     30  C   UNL     1      10.660  -6.133  -1.318  0.00  0.00    -0.063 C 
BRANCH  30  31
ATOM     31  C   UNL     1      11.987  -5.647  -1.552  0.00  0.00    +0.025 A 
ATOM     32  C   UNL     1      12.491  -5.586  -2.851  0.00  0.00    +0.017 A 
ATOM     33  C   UNL     1      13.770  -5.116  -3.070  0.00  0.00    +0.001 A 
ATOM     34  C   UNL     1      14.552  -4.707  -2.004  0.00  0.00    +0.000 A 
ATOM     35  C   UNL     1      14.057  -4.766  -0.714  0.00  0.00    +0.001 A 
ATOM     36  C   UNL     1      12.778  -5.228  -0.482  0.00  0.00    +0.017 A 
ENDBRANCH  30  31
ENDBRANCH  28  29
ENDBRANCH  27  28
ENDBRANCH   5  27
TORSDOF 10
