REMARK  Name = CHEMBL245744
REMARK  10 active torsions:
REMARK  status: ('A' for Active; 'I' for Inactive)
REMARK    1  A    between atoms: C_1  and  C_2
REMARK    2  A    between atoms: C_5  and  C_23
REMARK    3  A    between atoms: C_7  and  O_8
REMARK    4  A    between atoms: O_8  and  C_9
REMARK    5  A    between atoms: C_10  and  C_15
REMARK    6  A    between atoms: N_21  and  C_22
REMARK    7  A    between atoms: N_25  and  C_26
REMARK    8  A    between atoms: C_30  and  C_32
REMARK    9  A    between atoms: C_32  and  C_33
REMARK   10  A    between atoms: C_32  and  C_34
REMARK                            x       y       z     vdW  Elec       q    Type
REMARK                         _______ _______ _______ _____ _____    ______ ____
ROOT
ATOM      1  C   UNL     1      -0.074   1.477  -0.037  0.00  0.00    +0.047 C 
ATOM      2  C   UNL     1      -0.005  -0.028  -0.016  0.00  0.00    -0.008 A 
ATOM      3  C   UNL     1       0.000  -0.735  -1.204  0.00  0.00    +0.008 A 
ATOM      4  C   UNL     1       0.062  -2.113  -1.192  0.00  0.00    +0.013 A 
ATOM      5  C   UNL     1       0.121  -2.798   0.023  0.00  0.00    +0.041 A 
ATOM      6  C   UNL     1       0.116  -2.084   1.221  0.00  0.00    +0.059 A 
ATOM      7  C   UNL     1       0.058  -0.700   1.198  0.00  0.00    +0.134 A 
ENDROOT
BRANCH   5   8
ATOM      8  C   UNL     1       0.187  -4.275   0.040  0.00  0.00    +0.248 C 
ATOM      9  O   UNL     1       0.238  -4.869   1.099  0.00  0.00    -0.270 OA
ATOM     10  N   UNL     1       0.191  -4.962  -1.119  0.00  0.00    -0.281 N 
ATOM     11  H   UNL     1       0.236  -4.488  -1.964  0.00  0.00    +0.155 HD
BRANCH  10  12
ATOM     12  C   UNL     1       0.131  -6.359  -1.104  0.00  0.00    +0.034 A 
ATOM     13  C   UNL     1       0.663  -7.091  -2.158  0.00  0.00    +0.023 A 
ATOM     14  C   UNL     1       0.602  -8.470  -2.140  0.00  0.00    +0.002 A 
ATOM     15  C   UNL     1       0.012  -9.124  -1.073  0.00  0.00    +0.004 A 
ATOM     16  C   UNL     1      -0.518  -8.399  -0.022  0.00  0.00    -0.043 A 
ATOM     17  C   UNL     1      -0.455  -7.019  -0.032  0.00  0.00    +0.027 A 
BRANCH  16  18
ATOM     18  C   UNL     1      -1.161  -9.115   1.138  0.00  0.00    +0.013 C 
ATOM     19  C   UNL     1      -2.339  -9.950   0.633  0.00  0.00    +0.012 C 
ATOM     20  C   UNL     1      -0.133 -10.032   1.803  0.00  0.00    +0.012 C 
ENDBRANCH  16  18
ENDBRANCH  10  12
ENDBRANCH   5   8
BRANCH   7  21
ATOM     21  O   UNL     1       0.058  -0.000   2.362  0.00  0.00    -0.437 OA
BRANCH  21  22
ATOM     22  C   UNL     1       1.244   0.464   2.826  0.00  0.00    +0.231 A 
ATOM     23  C   UNL     1       1.304   1.095   4.076  0.00  0.00    +0.081 A 
ATOM     24  C   UNL     1       2.537   1.565   4.535  0.00  0.00    +0.018 A 
ATOM     25  C   UNL     1       3.650   1.387   3.730  0.00  0.00    +0.021 A 
ATOM     26  C   UNL     1       3.511   0.754   2.509  0.00  0.00    +0.114 A 
ATOM     27  N   UNL     1       2.337   0.314   2.098  0.00  0.00    -0.220 NA
BRANCH  23  28
ATOM     28  C   UNL     1       0.082   1.260   4.896  0.00  0.00    +0.170 A 
ATOM     29  N   UNL     1      -1.087   0.803   4.450  0.00  0.00    -0.216 NA
ATOM     30  C   UNL     1      -2.178   0.950   5.181  0.00  0.00    +0.227 A 
ATOM     31  N   UNL     1      -2.113   1.551   6.357  0.00  0.00    -0.203 NA
ATOM     32  C   UNL     1      -0.949   2.011   6.809  0.00  0.00    +0.218 A 
ATOM     33  N   UNL     1       0.151   1.860   6.080  0.00  0.00    -0.195 NA
ATOM     34  N   UNL     1      -0.884   2.638   8.037  0.00  0.00    -0.316 N 
ATOM     35  C   UNL     1      -2.097   2.799   8.842  0.00  0.00    +0.128 C 
ATOM     36  H   UNL     1      -0.035   2.973   8.366  0.00  0.00    +0.149 HD
ENDBRANCH  23  28
ENDBRANCH  21  22
ENDBRANCH   7  21
TORSDOF 6
