REMARK  Name = CHEMBL224547
REMARK  7 active torsions:
REMARK  status: ('A' for Active; 'I' for Inactive)
REMARK    1  A    between atoms: C_1  and  N_2
REMARK    2  A    between atoms: N_5  and  C_8
REMARK    3  A    between atoms: C_20  and  C_21
REMARK    4  A    between atoms: C_23  and  C_26
REMARK    5  A    between atoms: C_27  and  C_28
REMARK    6  A    between atoms: C_28  and  O_29
REMARK    7  A    between atoms: O_29  and  C_30
REMARK                            x       y       z     vdW  Elec       q    Type
REMARK                         _______ _______ _______ _____ _____    ______ ____
ROOT
ATOM      1  C   UNL     1      -0.972  -3.609   1.776  0.00  0.00    +0.030 A 
ATOM      2  C   UNL     1      -2.280  -4.064   1.658  0.00  0.00    +0.024 A 
ATOM      3  C   UNL     1      -2.737  -5.077   2.472  0.00  0.00    +0.012 A 
ATOM      4  C   UNL     1      -1.887  -5.651   3.420  0.00  0.00    +0.006 A 
ATOM      5  C   UNL     1      -0.578  -5.191   3.535  0.00  0.00    -0.032 A 
ATOM      6  C   UNL     1      -0.121  -4.181   2.715  0.00  0.00    +0.027 A 
ATOM      7  C   UNL     1       0.096  -5.985   4.627  0.00  0.00    +0.075 C 
ATOM      8  C   UNL     1      -0.941  -6.953   5.141  0.00  0.00    +0.010 A 
ATOM      9  C   UNL     1      -2.119  -6.736   4.407  0.00  0.00    +0.097 A 
ATOM     10  N   UNL     1      -3.034  -7.578   4.848  0.00  0.00    -0.173 NA
ATOM     11  H   UNL     1      -2.922  -9.049   6.371  0.00  0.00    +0.189 HD
ATOM     12  N   UNL     1      -2.472  -8.351   5.870  0.00  0.00    -0.276 N 
ATOM     13  C   UNL     1      -1.179  -7.951   6.037  0.00  0.00    +0.070 A 
ENDROOT
BRANCH   1  18
ATOM     14  C   UNL     1      -0.038   1.464  -0.002  0.00  0.00    -0.096 C 
ATOM     15  N   UNL     1      -0.008  -0.004  -0.004  0.00  0.00    +0.380 N 
ATOM     16  C   UNL     1      -1.382  -0.520  -0.014  0.00  0.00    -0.060 C 
ATOM     17  C   UNL     1      -1.353  -2.048  -0.132  0.00  0.00    +0.086 C 
ATOM     18  N   UNL     1      -0.511  -2.583   0.950  0.00  0.00    -0.333 N 
ATOM     19  C   UNL     1       0.828  -2.005   1.137  0.00  0.00    +0.086 C 
ATOM     20  C   UNL     1       0.696  -0.479   1.195  0.00  0.00    -0.060 C 
ATOM     21  H   UNL     1       0.477  -0.328  -0.827  0.00  0.00    -0.082 HD
ENDBRANCH   1  18
BRANCH  13  22
ATOM     22  C   UNL     1      -0.211  -8.501   7.012  0.00  0.00    +0.008 A 
ATOM     23  C   UNL     1      -0.082  -9.872   7.186  0.00  0.00    +0.034 A 
ATOM     24  C   UNL     1       0.827 -10.336   8.098  0.00  0.00    +0.063 A 
ATOM     25  S   UNL     1       1.525  -8.823   8.738  0.00  0.00    -0.088 S 
ATOM     26  C   UNL     1       0.581  -7.668   7.759  0.00  0.00    +0.056 A 
BRANCH  24  27
ATOM     27  C   UNL     1       1.137 -11.689   8.450  0.00  0.00    -0.056 C 
ATOM     28  C   UNL     1       1.391 -12.798   8.739  0.00  0.00    -0.056 C 
BRANCH  28  29
ATOM     29  C   UNL     1       1.710 -14.189   9.101  0.00  0.00    +0.318 C 
BRANCH  29  30
ATOM     30  O   UNL     1       2.726 -14.199  10.105  0.00  0.00    -0.480 OA
BRANCH  30  31
ATOM     31  C   UNL     1       3.139 -15.414  10.553  0.00  0.00    +0.122 A 
ATOM     32  C   UNL     1       2.581 -16.572  10.033  0.00  0.00    +0.046 A 
ATOM     33  C   UNL     1       3.003 -17.806  10.490  0.00  0.00    +0.004 A 
ATOM     34  C   UNL     1       3.979 -17.886  11.466  0.00  0.00    +0.000 A 
ATOM     35  C   UNL     1       4.536 -16.733  11.986  0.00  0.00    +0.004 A 
ATOM     36  C   UNL     1       4.123 -15.497  11.528  0.00  0.00    +0.046 A 
ENDBRANCH  30  31
ENDBRANCH  29  30
ENDBRANCH  28  29
ENDBRANCH  24  27
ENDBRANCH  13  22
TORSDOF 6
