REMARK  Name = CHEMBL118400
REMARK  7 active torsions:
REMARK  status: ('A' for Active; 'I' for Inactive)
REMARK    1  A    between atoms: C_1  and  N_2
REMARK    2  A    between atoms: N_5  and  C_8
REMARK    3  A    between atoms: C_8  and  C_9
REMARK    4  A    between atoms: C_9  and  C_10
REMARK    5  A    between atoms: C_10  and  N_11
REMARK    6  A    between atoms: C_14  and  C_18
REMARK    7  A    between atoms: C_22  and  C_27
REMARK                            x       y       z     vdW  Elec       q    Type
REMARK                         _______ _______ _______ _____ _____    ______ ____
ROOT
ATOM      1  N   UNL     1       0.659  -6.640   3.486  0.00  0.00    -0.315 N 
ATOM      2  C   UNL     1       2.004  -6.817   3.580  0.00  0.00    +0.089 A 
ATOM      3  C   UNL     1       2.565  -7.291   4.713  0.00  0.00    +0.026 A 
ATOM      4  C   UNL     1       1.747  -7.610   5.820  0.00  0.00    -0.008 A 
ATOM      5  C   UNL     1       0.376  -7.426   5.716  0.00  0.00    +0.079 A 
ATOM      6  C   UNL     1      -0.154  -6.927   4.519  0.00  0.00    +0.252 A 
ATOM      7  O   UNL     1      -1.359  -6.755   4.411  0.00  0.00    -0.268 OA
ENDROOT
BRANCH   4   8
ATOM      8  C   UNL     1       2.343  -8.132   7.071  0.00  0.00    +0.019 A 
ATOM      9  C   UNL     1       3.287  -7.362   7.790  0.00  0.00    +0.123 A 
ATOM     10  N   UNL     1       3.810  -7.830   8.896  0.00  0.00    -0.235 NA
ATOM     11  C   UNL     1       3.467  -9.036   9.366  0.00  0.00    +0.163 A 
ATOM     12  C   UNL     1       3.866  -9.755  10.497  0.00  0.00    +0.046 A 
ATOM     13  C   UNL     1       3.173 -10.969  10.483  0.00  0.00    +0.145 A 
ATOM     14  N   UNL     1       2.400 -11.005   9.424  0.00  0.00    -0.173 NA
ATOM     15  N   UNL     1       2.554  -9.817   8.701  0.00  0.00    -0.221 N 
ATOM     16  C   UNL     1       1.984  -9.363   7.549  0.00  0.00    +0.124 A 
BRANCH  12  17
ATOM     17  C   UNL     1       4.844  -9.312  11.521  0.00  0.00    -0.006 A 
ATOM     18  C   UNL     1       4.536  -9.382  12.876  0.00  0.00    +0.016 A 
ATOM     19  C   UNL     1       5.454  -8.969  13.780  0.00  0.00    +0.046 A 
ATOM     20  S   UNL     1       6.808  -8.457  12.736  0.00  0.00    -0.104 S 
ATOM     21  C   UNL     1       6.069  -8.831  11.155  0.00  0.00    +0.053 A 
ENDBRANCH  12  17
ENDBRANCH   4   8
BRANCH   1  22
ATOM     22  C   UNL     1       0.087  -6.124   2.241  0.00  0.00    +0.123 C 
BRANCH  22  23
ATOM     23  C   UNL     1       0.036  -4.596   2.298  0.00  0.00    +0.003 C 
BRANCH  23  24
ATOM     24  C   UNL     1      -0.562  -4.056   0.998  0.00  0.00    -0.077 C 
BRANCH  24  29
ATOM     25  C   UNL     1      -0.018   1.465   0.010  0.00  0.00    +0.104 C 
ATOM     26  N   UNL     1       0.002  -0.004   0.002  0.00  0.00    -0.309 NA
ATOM     27  C   UNL     1      -1.361  -0.549  -0.076  0.00  0.00    +0.065 C 
ATOM     28  C   UNL     1      -1.293  -2.076  -0.143  0.00  0.00    -0.063 C 
ATOM     29  N   UNL     1      -0.611  -2.589   1.053  0.00  0.00    +0.381 N 
ATOM     30  C   UNL     1       0.757  -2.055   1.104  0.00  0.00    -0.063 C 
ATOM     31  C   UNL     1       0.707  -0.528   1.181  0.00  0.00    +0.065 C 
ATOM     32  H   UNL     1      -1.115  -2.300   1.878  0.00  0.00    -0.082 HD
ENDBRANCH  24  29
ENDBRANCH  23  24
ENDBRANCH  22  23
ENDBRANCH   1  22
TORSDOF 6
