REMARK  Name = CHEMBL382730
REMARK  10 active torsions:
REMARK  status: ('A' for Active; 'I' for Inactive)
REMARK    1  A    between atoms: C_1  and  N_2
REMARK    2  A    between atoms: C_5  and  C_8
REMARK    3  A    between atoms: C_8  and  O_9
REMARK    4  A    between atoms: O_9  and  C_10
REMARK    5  A    between atoms: C_15  and  O_16
REMARK    6  A    between atoms: O_16  and  C_17
REMARK    7  A    between atoms: C_18  and  N_22
REMARK    8  A    between atoms: C_26  and  O_30
REMARK    9  A    between atoms: O_30  and  C_31
REMARK   10  A    between atoms: C_31  and  C_32
REMARK                            x       y       z     vdW  Elec       q    Type
REMARK                         _______ _______ _______ _____ _____    ______ ____
ROOT
ATOM      1  C   UNL     1       0.295  -6.000   2.250  0.00  0.00    +0.164 A 
ATOM      2  C   UNL     1      -0.134  -6.755   1.195  0.00  0.00    +0.078 A 
ATOM      3  C   UNL     1       0.004  -8.149   1.239  0.00  0.00    +0.080 A 
ATOM      4  C   UNL     1       0.589  -8.756   2.382  0.00  0.00    +0.048 A 
ATOM      5  C   UNL     1       1.020  -7.961   3.448  0.00  0.00    +0.063 A 
ATOM      6  C   UNL     1       0.878  -6.603   3.376  0.00  0.00    +0.162 A 
ATOM      7  C   UNL     1       0.716 -10.169   2.398  0.00  0.00    +0.164 A 
ATOM      8  N   UNL     1       0.280 -10.849   1.340  0.00  0.00    -0.216 NA
ATOM      9  C   UNL     1      -0.258 -10.236   0.301  0.00  0.00    +0.224 A 
ATOM     10  N   UNL     1      -0.400  -8.933   0.232  0.00  0.00    -0.235 NA
ENDROOT
BRANCH   7  11
ATOM     11  N   UNL     1       1.269 -10.811   3.463  0.00  0.00    -0.228 NA
ATOM     12  C   UNL     1       0.530 -11.122   4.491  0.00  0.00    +0.098 C 
ATOM     13  C   UNL     1       1.121 -11.717   5.759  0.00  0.00    +0.142 C 
ATOM     14  C   UNL     1       0.575 -10.912   6.919  0.00  0.00    +0.203 C 
ATOM     15  C   UNL     1      -0.838 -10.489   6.906  0.00  0.00    +0.167 C 
ATOM     16  C   UNL     1      -1.560 -10.477   5.758  0.00  0.00    +0.102 C 
ATOM     17  C   UNL     1      -0.944 -10.912   4.498  0.00  0.00    +0.204 C 
ATOM     18  O   UNL     1      -1.615 -11.095   3.500  0.00  0.00    -0.286 OA
ATOM     19  O   UNL     1       1.291 -10.620   7.848  0.00  0.00    -0.288 OA
BRANCH  15  20
ATOM     20  O   UNL     1      -1.426 -10.104   8.062  0.00  0.00    -0.484 OA
BRANCH  20  21
ATOM     21  C   UNL     1      -2.796  -9.703   7.992  0.00  0.00    +0.264 C 
BRANCH  21  22
ATOM     22  C   UNL     1      -3.276  -9.311   9.366  0.00  0.00    -0.010 A 
ATOM     23  C   UNL     1      -3.831 -10.262  10.201  0.00  0.00    +0.007 A 
ATOM     24  C   UNL     1      -4.272  -9.903  11.461  0.00  0.00    +0.000 A 
ATOM     25  C   UNL     1      -4.156  -8.593  11.886  0.00  0.00    +0.000 A 
ATOM     26  C   UNL     1      -3.599  -7.642  11.051  0.00  0.00    +0.000 A 
ATOM     27  C   UNL     1      -3.155  -8.002   9.793  0.00  0.00    +0.007 A 
ENDBRANCH  21  22
ENDBRANCH  20  21
ENDBRANCH  15  20
ENDBRANCH   7  11
BRANCH   6  28
ATOM     28  O   UNL     1       1.302  -5.827   4.409  0.00  0.00    -0.491 OA
ATOM     29  C   UNL     1       1.887  -6.499   5.526  0.00  0.00    +0.277 C 
ENDBRANCH   6  28
BRANCH   1  30
ATOM     30  O   UNL     1       0.161  -4.649   2.207  0.00  0.00    -0.488 OA
BRANCH  30  31
ATOM     31  C   UNL     1      -0.441  -4.095   1.035  0.00  0.00    +0.232 C 
BRANCH  31  36
ATOM     32  C   UNL     1       0.131   1.498   0.078  0.00  0.00    -0.096 C 
ATOM     33  N   UNL     1       0.131   0.029   0.062  0.00  0.00    +0.378 N 
ATOM     34  C   UNL     1      -1.254  -0.459   0.068  0.00  0.00    -0.079 C 
ATOM     35  C   UNL     1      -1.261  -1.986  -0.029  0.00  0.00    -0.012 C 
ATOM     36  C   UNL     1      -0.506  -2.572   1.167  0.00  0.00    +0.023 C 
ATOM     37  C   UNL     1       0.914  -1.998   1.193  0.00  0.00    -0.012 C 
ATOM     38  C   UNL     1       0.840  -0.471   1.246  0.00  0.00    -0.079 C 
ATOM     39  H   UNL     1       0.597  -0.297  -0.771  0.00  0.00    -0.082 HD
ENDBRANCH  31  36
ENDBRANCH  30  31
ENDBRANCH   1  30
TORSDOF 8
