REMARK  Name = CHEMBL1173411
REMARK  7 active torsions:
REMARK  status: ('A' for Active; 'I' for Inactive)
REMARK    1  A    between atoms: C_1  and  C_2
REMARK    2  A    between atoms: C_3  and  C_31
REMARK    3  A    between atoms: C_7  and  C_8
REMARK    4  A    between atoms: C_13  and  N_19
REMARK    5  A    between atoms: N_22  and  C_23
REMARK    6  A    between atoms: C_26  and  O_29
REMARK    7  A    between atoms: O_29  and  C_30
REMARK                            x       y       z     vdW  Elec       q    Type
REMARK                         _______ _______ _______ _____ _____    ______ ____
ROOT
ATOM      1  C   UNL     1      -0.105  -0.536   2.432  0.00  0.00    +0.039 C 
ATOM      2  C   UNL     1      -0.168  -1.457   3.458  0.00  0.00    +0.048 C 
ATOM      3  C   UNL     1      -0.258  -1.183   4.909  0.00  0.00    +0.008 A 
ATOM      4  C   UNL     1      -0.303  -0.009   5.656  0.00  0.00    +0.012 A 
ATOM      5  C   UNL     1      -0.389  -0.074   7.030  0.00  0.00    +0.024 A 
ATOM      6  C   UNL     1      -0.429  -1.310   7.668  0.00  0.00    +0.037 A 
ATOM      7  C   UNL     1      -0.385  -2.483   6.931  0.00  0.00    +0.047 A 
ATOM      8  C   UNL     1      -0.299  -2.432   5.545  0.00  0.00    +0.043 A 
ATOM      9  N   UNL     1      -0.240  -3.435   4.585  0.00  0.00    -0.281 N 
ATOM     10  C   UNL     1      -0.168  -2.923   3.345  0.00  0.00    +0.249 C 
ATOM     11  O   UNL     1      -0.111  -3.561   2.309  0.00  0.00    -0.270 OA
ATOM     12  H   UNL     1      -0.253  -4.384   4.785  0.00  0.00    +0.155 HD
ENDROOT
BRANCH   1  19
ATOM     13  C   UNL     1      -1.449   0.668  -0.100  0.00  0.00    +0.047 C 
ATOM     14  C   UNL     1      -0.444  -0.453  -0.032  0.00  0.00    -0.012 A 
ATOM     15  C   UNL     1       0.089  -1.175  -1.124  0.00  0.00    +0.084 A 
ATOM     16  C   UNL     1       0.972  -2.108  -0.605  0.00  0.00    +0.098 A 
ATOM     17  N   UNL     1       0.994  -1.982   0.731  0.00  0.00    -0.360 N 
ATOM     18  H   UNL     1       1.531  -2.518   1.336  0.00  0.00    +0.165 HD
ATOM     19  C   UNL     1       0.138  -0.969   1.109  0.00  0.00    +0.044 A 
BRANCH  15  20
ATOM     20  C   UNL     1      -0.233  -0.973  -2.544  0.00  0.00    +0.388 C 
ATOM     21  O   UNL     1       0.302  -1.668  -3.397  0.00  0.00    -0.241 OA
ATOM     22  O   UNL     1      -1.034  -0.109  -2.873  0.00  0.00    -0.241 OA
ENDBRANCH  15  20
ENDBRANCH   1  19
BRANCH   6  23
ATOM     23  N   UNL     1      -0.515  -1.369   9.063  0.00  0.00    -0.269 N 
ATOM     24  C   UNL     1      -1.240  -0.451   9.733  0.00  0.00    +0.308 C 
ATOM     25  O   UNL     1      -1.747   0.478   9.135  0.00  0.00    -0.252 OA
ATOM     26  N   UNL     1      -1.403  -0.563  11.067  0.00  0.00    -0.269 N 
ATOM     27  H   UNL     1      -0.053  -2.070   9.549  0.00  0.00    +0.156 HD
ATOM     28  H   UNL     1      -0.941  -1.263  11.554  0.00  0.00    +0.156 HD
BRANCH  26  29
ATOM     29  C   UNL     1      -2.238   0.332  11.748  0.00  0.00    +0.035 A 
ATOM     30  C   UNL     1      -1.931   0.718  13.046  0.00  0.00    +0.027 A 
ATOM     31  C   UNL     1      -2.755   1.600  13.717  0.00  0.00    +0.047 A 
ATOM     32  C   UNL     1      -3.889   2.100  13.095  0.00  0.00    +0.120 A 
ATOM     33  C   UNL     1      -4.197   1.714  11.799  0.00  0.00    +0.047 A 
ATOM     34  C   UNL     1      -3.371   0.838  11.124  0.00  0.00    +0.027 A 
BRANCH  32  35
ATOM     35  O   UNL     1      -4.701   2.967  13.757  0.00  0.00    -0.495 OA
ATOM     36  C   UNL     1      -5.852   3.442  13.056  0.00  0.00    +0.277 C 
ENDBRANCH  32  35
ENDBRANCH  26  29
ENDBRANCH   6  23
TORSDOF 5
