REMARK  Name = CHEMBL184274
REMARK  6 active torsions:
REMARK  status: ('A' for Active; 'I' for Inactive)
REMARK    1  A    between atoms: C_1  and  C_2
REMARK    2  A    between atoms: C_6  and  N_8
REMARK    3  A    between atoms: N_11  and  C_12
REMARK    4  A    between atoms: C_15  and  C_18
REMARK    5  A    between atoms: C_21  and  N_28
REMARK    6  A    between atoms: C_29  and  C_31
REMARK                            x       y       z     vdW  Elec       q    Type
REMARK                         _______ _______ _______ _____ _____    ______ ____
ROOT
ATOM      1  C   UNL     1       0.028 -10.471   3.634  0.00  0.00    -0.012 A 
ATOM      2  C   UNL     1      -0.775 -11.180   2.736  0.00  0.00    +0.011 A 
ATOM      3  C   UNL     1      -0.763 -12.557   2.735  0.00  0.00    +0.025 A 
ATOM      4  C   UNL     1       0.046 -13.254   3.625  0.00  0.00    +0.046 A 
ATOM      5  C   UNL     1       0.857 -12.551   4.530  0.00  0.00    +0.063 A 
ATOM      6  C   UNL     1       0.843 -11.155   4.521  0.00  0.00    -0.009 A 
ATOM      7  C   UNL     1       1.811 -10.711   5.589  0.00  0.00    +0.141 C 
ATOM      8  N   UNL     1       2.360 -11.938   6.178  0.00  0.00    -0.307 N 
ATOM      9  C   UNL     1       1.799 -12.998   5.570  0.00  0.00    +0.246 C 
ATOM     10  O   UNL     1       2.045 -14.159   5.831  0.00  0.00    -0.270 OA
ATOM     11  H   UNL     1       3.013 -11.978   6.894  0.00  0.00    +0.149 HD
ENDROOT
BRANCH   1  15
ATOM     12  C   UNL     1      -0.018  -6.217   3.631  0.00  0.00    +0.035 A 
ATOM     13  C   UNL     1       0.150  -6.910   2.439  0.00  0.00    +0.024 A 
ATOM     14  C   UNL     1       0.166  -8.288   2.437  0.00  0.00    +0.010 A 
ATOM     15  C   UNL     1       0.012  -8.987   3.633  0.00  0.00    -0.017 A 
ATOM     16  C   UNL     1      -0.157  -8.290   4.829  0.00  0.00    +0.010 A 
ATOM     17  C   UNL     1      -0.166  -6.911   4.826  0.00  0.00    +0.024 A 
BRANCH  12  21
ATOM     18  N   UNL     1      -0.488  -2.807   2.537  0.00  0.00    -0.269 N 
ATOM     19  C   UNL     1      -0.569  -4.151   2.590  0.00  0.00    +0.308 C 
ATOM     20  O   UNL     1      -1.126  -4.761   1.698  0.00  0.00    -0.252 OA
ATOM     21  N   UNL     1      -0.033  -4.818   3.631  0.00  0.00    -0.269 N 
ATOM     22  H   UNL     1       0.021  -2.325   3.208  0.00  0.00    +0.156 HD
ATOM     23  H   UNL     1       0.342  -4.329   4.379  0.00  0.00    +0.156 HD
BRANCH  18  29
ATOM     24  C   UNL     1      -0.604   0.997  -0.577  0.00  0.00    +0.044 C 
ATOM     25  C   UNL     1      -1.217  -0.259  -0.012  0.00  0.00    -0.049 A 
ATOM     26  C   UNL     1      -2.424  -0.720  -0.505  0.00  0.00    +0.003 A 
ATOM     27  C   UNL     1      -2.990  -1.871   0.010  0.00  0.00    +0.002 A 
ATOM     28  C   UNL     1      -2.351  -2.565   1.019  0.00  0.00    +0.023 A 
ATOM     29  C   UNL     1      -1.139  -2.106   1.515  0.00  0.00    +0.035 A 
ATOM     30  C   UNL     1      -0.570  -0.951   0.993  0.00  0.00    +0.026 A 
ENDBRANCH  18  29
ENDBRANCH  12  21
ENDBRANCH   1  15
BRANCH   4  31
ATOM     31  N   UNL     1       0.053 -14.645   3.618  0.00  0.00    -0.281 N 
ATOM     32  C   UNL     1      -0.238 -15.315   2.485  0.00  0.00    +0.250 C 
ATOM     33  O   UNL     1      -0.424 -14.706   1.450  0.00  0.00    -0.270 OA
ATOM     34  H   UNL     1       0.267 -15.133   4.428  0.00  0.00    +0.155 HD
BRANCH  32  35
ATOM     35  C   UNL     1      -0.332 -16.790   2.502  0.00  0.00    +0.055 A 
ATOM     36  C   UNL     1      -0.628 -17.498   1.331  0.00  0.00    +0.016 A 
ATOM     37  C   UNL     1      -0.705 -18.878   1.401  0.00  0.00    +0.020 A 
ATOM     38  C   UNL     1      -0.488 -19.508   2.614  0.00  0.00    +0.111 A 
ATOM     39  N   UNL     1      -0.210 -18.814   3.701  0.00  0.00    -0.263 NA
ATOM     40  C   UNL     1      -0.121 -17.501   3.685  0.00  0.00    +0.123 A 
ENDBRANCH  32  35
ENDBRANCH   4  31
TORSDOF 5
