REMARK  Name = CHEMBL498551
REMARK  4 active torsions:
REMARK  status: ('A' for Active; 'I' for Inactive)
REMARK    1  A    between atoms: C_1  and  N_2
REMARK    2  A    between atoms: N_5  and  C_8
REMARK    3  A    between atoms: C_14  and  N_30
REMARK    4  A    between atoms: C_15  and  C_20
REMARK                            x       y       z     vdW  Elec       q    Type
REMARK                         _______ _______ _______ _____ _____    ______ ____
ROOT
ATOM      1  C   UNL     1      -1.036  -3.990   1.872  0.00  0.00    +0.041 A 
ATOM      2  C   UNL     1      -1.032  -5.356   1.634  0.00  0.00    +0.024 A 
ATOM      3  C   UNL     1      -1.577  -6.227   2.561  0.00  0.00    +0.004 A 
ATOM      4  C   UNL     1      -2.132  -5.755   3.733  0.00  0.00    +0.026 A 
ATOM      5  C   UNL     1      -2.150  -4.392   3.998  0.00  0.00    +0.053 A 
ATOM      6  C   UNL     1      -1.593  -3.499   3.064  0.00  0.00    +0.041 A 
ATOM      7  C   UNL     1      -1.611  -2.063   3.353  0.00  0.00    +0.052 A 
ATOM      8  C   UNL     1      -2.181  -1.640   4.559  0.00  0.00    +0.103 A 
ATOM      9  C   UNL     1      -2.716  -2.597   5.452  0.00  0.00    +0.262 A 
ATOM     10  O   UNL     1      -3.211  -2.220   6.500  0.00  0.00    -0.267 OA
ATOM     11  N   UNL     1      -2.703  -3.910   5.168  0.00  0.00    -0.321 N 
ATOM     12  H   UNL     1      -3.081  -4.535   5.806  0.00  0.00    +0.169 HD
ENDROOT
BRANCH   8  13
ATOM     13  C   UNL     1      -2.223  -0.208   4.895  0.00  0.00    +0.146 A 
ATOM     14  N   UNL     1      -2.637   0.309   6.095  0.00  0.00    -0.338 N 
ATOM     15  H   UNL     1      -2.950  -0.196   6.862  0.00  0.00    +0.167 HD
ATOM     16  C   UNL     1      -2.526   1.685   6.008  0.00  0.00    +0.066 A 
ATOM     17  C   UNL     1      -2.790   2.728   6.885  0.00  0.00    +0.028 A 
ATOM     18  C   UNL     1      -2.569   4.030   6.489  0.00  0.00    +0.002 A 
ATOM     19  C   UNL     1      -2.083   4.307   5.219  0.00  0.00    +0.002 A 
ATOM     20  C   UNL     1      -1.816   3.286   4.335  0.00  0.00    +0.030 A 
ATOM     21  C   UNL     1      -2.034   1.959   4.721  0.00  0.00    +0.089 A 
ATOM     22  N   UNL     1      -1.864   0.769   4.093  0.00  0.00    -0.227 NA
ENDBRANCH   8  13
BRANCH   1  27
ATOM     23  C   UNL     1       1.648  -2.308  -2.565  0.00  0.00    -0.096 C 
ATOM     24  N   UNL     1       0.877  -2.200  -1.319  0.00  0.00    +0.380 N 
ATOM     25  C   UNL     1       1.632  -2.818  -0.222  0.00  0.00    -0.060 C 
ATOM     26  C   UNL     1       0.882  -2.605   1.097  0.00  0.00    +0.086 C 
ATOM     27  N   UNL     1      -0.489  -3.115   0.941  0.00  0.00    -0.333 N 
ATOM     28  C   UNL     1      -1.265  -2.671  -0.227  0.00  0.00    +0.086 C 
ATOM     29  C   UNL     1      -0.414  -2.880  -1.484  0.00  0.00    -0.060 C 
ATOM     30  H   UNL     1       0.718  -1.226  -1.107  0.00  0.00    -0.082 HD
ENDBRANCH   1  27
BRANCH   7  31
ATOM     31  N   UNL     1      -1.083  -1.156   2.465  0.00  0.00    -0.357 N 
ATOM     32  H   UNL     1      -1.138  -1.324   1.512  0.00  0.00    +0.142 HD
ATOM     33  H   UNL     1      -0.655  -0.350   2.793  0.00  0.00    +0.142 HD
ENDBRANCH   7  31
TORSDOF 3
