REMARK  Name = CHEMBL379896
REMARK  6 active torsions:
REMARK  status: ('A' for Active; 'I' for Inactive)
REMARK    1  A    between atoms: C_1  and  O_2
REMARK    2  A    between atoms: O_2  and  C_3
REMARK    3  A    between atoms: C_3  and  C_4
REMARK    4  A    between atoms: C_4  and  N_5
REMARK    5  A    between atoms: C_13  and  N_17
REMARK    6  A    between atoms: C_21  and  C_23
REMARK                            x       y       z     vdW  Elec       q    Type
REMARK                         _______ _______ _______ _____ _____    ______ ____
ROOT
ATOM      1  N   UNL     1      -0.518  -2.456   1.273  0.00  0.00    -0.297 NA
ATOM      2  C   UNL     1       0.818  -1.855   1.377  0.00  0.00    +0.103 C 
ATOM      3  C   UNL     1       1.358  -2.063   2.796  0.00  0.00    +0.122 C 
ATOM      4  N   UNL     1       1.295  -3.498   3.114  0.00  0.00    -0.313 N 
ATOM      5  C   UNL     1       0.021  -4.202   2.903  0.00  0.00    +0.122 C 
ATOM      6  C   UNL     1      -0.467  -3.909   1.480  0.00  0.00    +0.103 C 
ATOM      7  C   UNL     1       2.406  -4.168   3.601  0.00  0.00    +0.126 A 
ATOM      8  C   UNL     1       3.575  -3.474   3.902  0.00  0.00    +0.087 A 
ATOM      9  C   UNL     1       4.662  -4.193   4.387  0.00  0.00    +0.129 A 
ATOM     10  N   UNL     1       4.547  -5.510   4.546  0.00  0.00    -0.220 NA
ATOM     11  C   UNL     1       3.424  -6.131   4.250  0.00  0.00    +0.225 A 
ATOM     12  N   UNL     1       2.370  -5.486   3.793  0.00  0.00    -0.221 NA
ENDROOT
BRANCH   9  13
ATOM     13  N   UNL     1       5.850  -3.546   4.702  0.00  0.00    -0.279 N 
ATOM     14  C   UNL     1       6.957  -4.282   5.081  0.00  0.00    +0.165 A 
ATOM     15  N   UNL     1       7.043  -5.584   5.282  0.00  0.00    -0.232 NA
ATOM     16  C   UNL     1       8.170  -6.147   5.642  0.00  0.00    +0.139 A 
ATOM     17  C   UNL     1       9.259  -5.302   5.799  0.00  0.00    +0.110 A 
ATOM     18  S   UNL     1       8.517  -3.730   5.390  0.00  0.00    -0.042 S 
ATOM     19  H   UNL     1       5.903  -2.579   4.655  0.00  0.00    +0.155 HD
BRANCH  17  20
ATOM     20  C   UNL     1      10.606  -5.606   6.179  0.00  0.00    +0.108 C 
ATOM     21  N   UNL     1      11.674  -5.848   6.481  0.00  0.00    -0.190 NA
ENDBRANCH  17  20
ENDBRANCH   9  13
BRANCH   1  22
ATOM     22  C   UNL     1      -1.142  -2.130  -0.017  0.00  0.00    +0.112 C 
BRANCH  22  23
ATOM     23  C   UNL     1      -2.657  -2.317   0.088  0.00  0.00    +0.174 C 
BRANCH  23  25
ATOM     24  C   UNL     1      -4.607  -1.460   1.189  0.00  0.00    +0.194 C 
ATOM     25  O   UNL     1      -3.191  -1.370   1.016  0.00  0.00    -0.382 OA
ENDBRANCH  23  25
ENDBRANCH  22  23
ENDBRANCH   1  22
TORSDOF 5
