REMARK  Name = CHEMBL440940
REMARK  13 active torsions:
REMARK  status: ('A' for Active; 'I' for Inactive)
REMARK    1  A    between atoms: C_1  and  N_2
REMARK    2  A    between atoms: C_5  and  C_8
REMARK    3  A    between atoms: C_8  and  O_9
REMARK    4  A    between atoms: O_9  and  C_10
REMARK    5  A    between atoms: C_15  and  O_16
REMARK    6  A    between atoms: O_16  and  C_17
REMARK    7  A    between atoms: C_18  and  N_22
REMARK    8  A    between atoms: C_26  and  O_30
REMARK    9  A    between atoms: O_30  and  C_31
REMARK   10  A    between atoms: C_31  and  C_32
REMARK   11  A    between atoms: C_32  and  N_33
REMARK   12  A    between atoms: N_33  and  C_34
REMARK   13  A    between atoms: N_33  and  C_35
REMARK                            x       y       z     vdW  Elec       q    Type
REMARK                         _______ _______ _______ _____ _____    ______ ____
ROOT
ATOM      1  C   UNL     1       0.341  -5.995   2.235  0.00  0.00    +0.164 A 
ATOM      2  C   UNL     1      -0.103  -6.749   1.186  0.00  0.00    +0.078 A 
ATOM      3  C   UNL     1       0.020  -8.145   1.236  0.00  0.00    +0.080 A 
ATOM      4  C   UNL     1       0.605  -8.753   2.378  0.00  0.00    +0.048 A 
ATOM      5  C   UNL     1       1.052  -7.958   3.437  0.00  0.00    +0.063 A 
ATOM      6  C   UNL     1       0.925  -6.599   3.360  0.00  0.00    +0.162 A 
ATOM      7  C   UNL     1       0.717 -10.168   2.399  0.00  0.00    +0.164 A 
ATOM      8  N   UNL     1       0.266 -10.847   1.347  0.00  0.00    -0.216 NA
ATOM      9  C   UNL     1      -0.271 -10.233   0.308  0.00  0.00    +0.224 A 
ATOM     10  N   UNL     1      -0.400  -8.928   0.234  0.00  0.00    -0.235 NA
ENDROOT
BRANCH   7  11
ATOM     11  N   UNL     1       1.269 -10.811   3.463  0.00  0.00    -0.228 NA
ATOM     12  C   UNL     1       0.530 -11.122   4.491  0.00  0.00    +0.098 C 
ATOM     13  C   UNL     1      -0.976 -10.914   4.496  0.00  0.00    +0.142 C 
ATOM     14  C   UNL     1      -1.599 -12.212   4.962  0.00  0.00    +0.203 C 
ATOM     15  C   UNL     1      -0.967 -12.966   6.062  0.00  0.00    +0.167 C 
ATOM     16  C   UNL     1       0.320 -12.738   6.423  0.00  0.00    +0.102 C 
ATOM     17  C   UNL     1       1.108 -11.711   5.731  0.00  0.00    +0.204 C 
ATOM     18  O   UNL     1       2.190 -11.354   6.157  0.00  0.00    -0.286 OA
ATOM     19  O   UNL     1      -2.606 -12.627   4.438  0.00  0.00    -0.288 OA
BRANCH  15  20
ATOM     20  O   UNL     1      -1.686 -13.902   6.723  0.00  0.00    -0.487 OA
BRANCH  20  21
ATOM     21  C   UNL     1      -1.024 -14.601   7.779  0.00  0.00    +0.248 C 
BRANCH  21  22
ATOM     22  C   UNL     1      -1.988 -15.612   8.404  0.00  0.00    +0.145 C 
BRANCH  22  23
ATOM     23  N   UNL     1      -2.330 -16.637   7.415  0.00  0.00    -0.330 N 
ATOM     24  C   UNL     1      -1.517 -17.850   7.306  0.00  0.00    +0.129 C 
BRANCH  23  25
ATOM     25  C   UNL     1      -3.432 -16.457   6.575  0.00  0.00    +0.030 A 
ATOM     26  C   UNL     1      -4.201 -15.305   6.673  0.00  0.00    +0.023 A 
ATOM     27  C   UNL     1      -5.290 -15.130   5.841  0.00  0.00    +0.002 A 
ATOM     28  C   UNL     1      -5.614 -16.101   4.912  0.00  0.00    +0.000 A 
ATOM     29  C   UNL     1      -4.851 -17.250   4.811  0.00  0.00    +0.002 A 
ATOM     30  C   UNL     1      -3.758 -17.428   5.636  0.00  0.00    +0.023 A 
ENDBRANCH  23  25
ENDBRANCH  22  23
ENDBRANCH  21  22
ENDBRANCH  20  21
ENDBRANCH  15  20
ENDBRANCH   7  11
BRANCH   6  31
ATOM     31  O   UNL     1       1.364  -5.824   4.386  0.00  0.00    -0.491 OA
ATOM     32  C   UNL     1       1.949  -6.497   5.503  0.00  0.00    +0.277 C 
ENDBRANCH   6  31
BRANCH   1  33
ATOM     33  O   UNL     1       0.222  -4.643   2.186  0.00  0.00    -0.488 OA
BRANCH  33  34
ATOM     34  C   UNL     1      -0.380  -4.086   1.016  0.00  0.00    +0.232 C 
BRANCH  34  39
ATOM     35  C   UNL     1       0.248   1.496   0.031  0.00  0.00    -0.096 C 
ATOM     36  N   UNL     1       0.231   0.027   0.022  0.00  0.00    +0.378 N 
ATOM     37  C   UNL     1      -1.158  -0.446   0.039  0.00  0.00    -0.079 C 
ATOM     38  C   UNL     1      -1.183  -1.973  -0.052  0.00  0.00    -0.012 C 
ATOM     39  C   UNL     1      -0.427  -2.562   1.142  0.00  0.00    +0.023 C 
ATOM     40  C   UNL     1       0.999  -2.005   1.157  0.00  0.00    -0.012 C 
ATOM     41  C   UNL     1       0.943  -0.476   1.203  0.00  0.00    -0.079 C 
ATOM     42  H   UNL     1       0.688  -0.309  -0.813  0.00  0.00    -0.082 HD
ENDBRANCH  34  39
ENDBRANCH  33  34
ENDBRANCH   1  33
TORSDOF 10
