REMARK  Name = CHEMBL489820
REMARK  8 active torsions:
REMARK  status: ('A' for Active; 'I' for Inactive)
REMARK    1  A    between atoms: C_1  and  C_2
REMARK    2  A    between atoms: C_2  and  N_3
REMARK    3  A    between atoms: N_6  and  C_9
REMARK    4  A    between atoms: C_9  and  C_10
REMARK    5  A    between atoms: C_10  and  C_11
REMARK    6  A    between atoms: C_11  and  O_12
REMARK    7  A    between atoms: O_12  and  C_13
REMARK    8  A    between atoms: C_20  and  C_23
REMARK                            x       y       z     vdW  Elec       q    Type
REMARK                         _______ _______ _______ _____ _____    ______ ____
ROOT
ATOM      1  C   UNL     1       4.565  -6.524   6.255  0.00  0.00    +0.121 A 
ATOM      2  C   UNL     1       5.165  -5.734   7.234  0.00  0.00    +0.047 A 
ATOM      3  C   UNL     1       5.764  -6.311   8.331  0.00  0.00    +0.030 A 
ATOM      4  C   UNL     1       5.775  -7.695   8.471  0.00  0.00    +0.047 A 
ATOM      5  C   UNL     1       5.169  -8.496   7.485  0.00  0.00    +0.004 A 
ATOM      6  C   UNL     1       4.559  -7.898   6.377  0.00  0.00    +0.055 A 
ATOM      7  C   UNL     1       5.347  -9.882   7.914  0.00  0.00    +0.036 A 
ATOM      8  C   UNL     1       6.023  -9.848   9.091  0.00  0.00    +0.048 A 
ATOM      9  N   UNL     1       6.285  -8.541   9.434  0.00  0.00    -0.354 N 
ATOM     10  H   UNL     1       6.757  -8.257  10.232  0.00  0.00    +0.166 HD
ENDROOT
BRANCH   8  11
ATOM     11  C   UNL     1       6.418 -11.031   9.881  0.00  0.00    +0.011 A 
ATOM     12  C   UNL     1       5.548 -12.114  10.007  0.00  0.00    +0.011 A 
ATOM     13  C   UNL     1       5.919 -13.218  10.745  0.00  0.00    +0.001 A 
ATOM     14  C   UNL     1       7.158 -13.262  11.368  0.00  0.00    +0.006 A 
ATOM     15  C   UNL     1       8.028 -12.204  11.255  0.00  0.00    -0.018 A 
ATOM     16  C   UNL     1       7.678 -11.076  10.509  0.00  0.00    +0.050 A 
ATOM     17  C   UNL     1       8.796 -10.120  10.560  0.00  0.00    +0.245 C 
ATOM     18  O   UNL     1       8.807  -9.034  10.015  0.00  0.00    -0.270 OA
ATOM     19  N   UNL     1       9.804 -10.619  11.297  0.00  0.00    -0.307 N 
ATOM     20  C   UNL     1       9.413 -11.943  11.795  0.00  0.00    +0.140 C 
ATOM     21  H   UNL     1      10.647 -10.175  11.476  0.00  0.00    +0.149 HD
ENDBRANCH   8  11
BRANCH   1  22
ATOM     22  O   UNL     1       3.977  -5.938   5.178  0.00  0.00    -0.492 OA
BRANCH  22  23
ATOM     23  C   UNL     1       4.019  -4.511   5.114  0.00  0.00    +0.227 C 
BRANCH  23  24
ATOM     24  C   UNL     1       3.312  -4.037   3.842  0.00  0.00    +0.022 C 
BRANCH  24  25
ATOM     25  C   UNL     1       3.357  -2.509   3.772  0.00  0.00    -0.075 C 
BRANCH  25  29
ATOM     26  N   UNL     1       0.713  -0.491   1.192  0.00  0.00    -0.306 NA
ATOM     27  C   UNL     1       2.136  -0.127   1.141  0.00  0.00    +0.066 C 
ATOM     28  C   UNL     1       2.826  -0.598   2.423  0.00  0.00    -0.063 C 
ATOM     29  N   UNL     1       2.679  -2.054   2.551  0.00  0.00    +0.381 N 
ATOM     30  C   UNL     1       1.254  -2.400   2.625  0.00  0.00    -0.063 C 
ATOM     31  C   UNL     1       0.550  -1.944   1.345  0.00  0.00    +0.066 C 
ATOM     32  H   UNL     1       3.093  -2.506   1.749  0.00  0.00    -0.082 HD
BRANCH  26  34
ATOM     33  C   UNL     1      -0.019   1.526   0.010  0.00  0.00    +0.020 C 
ATOM     34  C   UNL     1       0.002  -0.004   0.002  0.00  0.00    +0.081 C 
ENDBRANCH  26  34
ENDBRANCH  25  29
ENDBRANCH  24  25
ENDBRANCH  23  24
ENDBRANCH  22  23
ENDBRANCH   1  22
TORSDOF 7
