REMARK  Name = CHEMBL243910
REMARK  8 active torsions:
REMARK  status: ('A' for Active; 'I' for Inactive)
REMARK    1  A    between atoms: C_1  and  O_2
REMARK    2  A    between atoms: O_2  and  C_3
REMARK    3  A    between atoms: C_3  and  N_5
REMARK    4  A    between atoms: C_11  and  O_16
REMARK    5  A    between atoms: O_16  and  C_17
REMARK    6  A    between atoms: C_20  and  N_23
REMARK    7  A    between atoms: N_26  and  C_27
REMARK    8  A    between atoms: C_29  and  C_34
REMARK                            x       y       z     vdW  Elec       q    Type
REMARK                         _______ _______ _______ _____ _____    ______ ____
ROOT
ATOM      1  C   UNL     1      -8.623  -5.929  -0.252  0.00  0.00    +0.221 A 
ATOM      2  C   UNL     1      -9.487  -7.012  -0.356  0.00  0.00    +0.069 A 
ATOM      3  C   UNL     1     -10.846  -6.782  -0.469  0.00  0.00    +0.030 A 
ATOM      4  C   UNL     1     -11.298  -5.464  -0.473  0.00  0.00    +0.053 A 
ATOM      5  C   UNL     1     -10.377  -4.433  -0.365  0.00  0.00    +0.138 A 
ATOM      6  N   UNL     1      -9.087  -4.691  -0.254  0.00  0.00    -0.219 NA
ENDROOT
BRANCH   4   7
ATOM      7  N   UNL     1     -12.667  -5.183  -0.585  0.00  0.00    -0.268 N 
ATOM      8  C   UNL     1     -13.572  -6.006  -0.021  0.00  0.00    +0.308 C 
ATOM      9  O   UNL     1     -13.201  -6.937   0.668  0.00  0.00    -0.252 OA
ATOM     10  N   UNL     1     -14.889  -5.798  -0.220  0.00  0.00    -0.267 N 
ATOM     11  H   UNL     1     -12.962  -4.396  -1.069  0.00  0.00    +0.156 HD
ATOM     12  H   UNL     1     -15.183  -5.092  -0.816  0.00  0.00    +0.156 HD
BRANCH  10  13
ATOM     13  C   UNL     1     -15.832  -6.603   0.433  0.00  0.00    +0.071 A 
ATOM     14  C   UNL     1     -15.490  -7.886   0.837  0.00  0.00    +0.038 A 
ATOM     15  C   UNL     1     -16.422  -8.677   1.481  0.00  0.00    +0.057 A 
ATOM     16  C   UNL     1     -17.695  -8.192   1.723  0.00  0.00    +0.015 A 
ATOM     17  C   UNL     1     -18.039  -6.915   1.323  0.00  0.00    +0.041 A 
ATOM     18  C   UNL     1     -17.110  -6.115   0.683  0.00  0.00    +0.145 A 
ATOM     19  F   UNL     1     -17.444  -4.865   0.296  0.00  0.00    -0.204 F 
BRANCH  15  20
ATOM     20  C   UNL     1     -16.052 -10.070   1.919  0.00  0.00    +0.417 C 
ATOM     21  F   UNL     1     -15.535 -10.028   3.219  0.00  0.00    -0.166 F 
ATOM     22  F   UNL     1     -17.189 -10.884   1.896  0.00  0.00    -0.166 F 
ATOM     23  F   UNL     1     -15.087 -10.592   1.050  0.00  0.00    -0.166 F 
ENDBRANCH  15  20
ENDBRANCH  10  13
ENDBRANCH   4   7
BRANCH   1  24
ATOM     24  O   UNL     1      -7.287  -6.144  -0.141  0.00  0.00    -0.438 OA
BRANCH  24  31
ATOM     25  N   UNL     1      -3.818  -0.275   2.034  0.00  0.00    -0.109 NA
ATOM     26  C   UNL     1      -4.335  -1.328   1.412  0.00  0.00    +0.201 A 
ATOM     27  N   UNL     1      -5.239  -2.193   1.945  0.00  0.00    -0.326 N 
ATOM     28  H   UNL     1      -5.614  -2.144   2.838  0.00  0.00    +0.169 HD
ATOM     29  C   UNL     1      -5.535  -3.160   0.989  0.00  0.00    +0.069 A 
ATOM     30  C   UNL     1      -6.376  -4.263   0.989  0.00  0.00    +0.074 A 
ATOM     31  C   UNL     1      -6.464  -5.062  -0.140  0.00  0.00    +0.132 A 
ATOM     32  C   UNL     1      -5.714  -4.761  -1.269  0.00  0.00    +0.048 A 
ATOM     33  C   UNL     1      -4.876  -3.664  -1.274  0.00  0.00    +0.031 A 
ATOM     34  C   UNL     1      -4.782  -2.859  -0.148  0.00  0.00    +0.066 A 
ATOM     35  N   UNL     1      -4.047  -1.710   0.139  0.00  0.00    -0.326 N 
ATOM     36  H   UNL     1      -3.434  -1.262  -0.465  0.00  0.00    +0.169 HD
BRANCH  25  37
ATOM     37  C   UNL     1      -3.020   0.568   1.371  0.00  0.00    +0.427 C 
ATOM     38  O   UNL     1      -2.691   0.320   0.225  0.00  0.00    -0.224 OA
BRANCH  37  40
ATOM     39  C   UNL     1      -1.728   2.547   1.205  0.00  0.00    +0.282 C 
ATOM     40  O   UNL     1      -2.579   1.693   1.972  0.00  0.00    -0.452 OA
ENDBRANCH  37  40
ENDBRANCH  25  37
ENDBRANCH  24  31
ENDBRANCH   1  24
TORSDOF 7
