REMARK  Name = CHEMBL383417
REMARK  2 active torsions:
REMARK  status: ('A' for Active; 'I' for Inactive)
REMARK    1  A    between atoms: C_7  and  N_23
REMARK    2  A    between atoms: C_8  and  C_13
REMARK                            x       y       z     vdW  Elec       q    Type
REMARK                         _______ _______ _______ _____ _____    ______ ____
ROOT
ATOM      1  C   UNL     1       0.190   1.533   0.027  0.00  0.00    +0.001 A 
ATOM      2  C   UNL     1       1.425   2.166  -0.007  0.00  0.00    +0.002 A 
ATOM      3  C   UNL     1       2.591   1.432  -0.037  0.00  0.00    +0.026 A 
ATOM      4  C   UNL     1       2.533   0.042  -0.034  0.00  0.00    +0.051 A 
ATOM      5  C   UNL     1       1.280  -0.595   0.001  0.00  0.00    +0.020 A 
ATOM      6  C   UNL     1       0.110   0.168   0.031  0.00  0.00    +0.012 A 
ATOM      7  C   UNL     1       1.226  -2.063   0.004  0.00  0.00    +0.050 A 
ATOM      8  C   UNL     1       2.433  -2.766  -0.027  0.00  0.00    +0.103 A 
ATOM      9  C   UNL     1       3.656  -2.054  -0.061  0.00  0.00    +0.262 A 
ATOM     10  O   UNL     1       4.704  -2.676  -0.088  0.00  0.00    -0.267 OA
ATOM     11  N   UNL     1       3.690  -0.712  -0.063  0.00  0.00    -0.321 N 
ATOM     12  H   UNL     1       4.548  -0.260  -0.087  0.00  0.00    +0.169 HD
ENDROOT
BRANCH   8  13
ATOM     13  C   UNL     1       2.432  -4.238  -0.025  0.00  0.00    +0.146 A 
ATOM     14  N   UNL     1       3.549  -5.027   0.071  0.00  0.00    -0.338 N 
ATOM     15  H   UNL     1       4.465  -4.720   0.148  0.00  0.00    +0.167 HD
ATOM     16  C   UNL     1       3.123  -6.343   0.037  0.00  0.00    +0.066 A 
ATOM     17  C   UNL     1       3.776  -7.566   0.094  0.00  0.00    +0.028 A 
ATOM     18  C   UNL     1       3.049  -8.736   0.035  0.00  0.00    +0.002 A 
ATOM     19  C   UNL     1       1.667  -8.700  -0.082  0.00  0.00    +0.002 A 
ATOM     20  C   UNL     1       1.001  -7.497  -0.140  0.00  0.00    +0.030 A 
ATOM     21  C   UNL     1       1.723  -6.301  -0.081  0.00  0.00    +0.089 A 
ATOM     22  N   UNL     1       1.361  -4.994  -0.108  0.00  0.00    -0.227 NA
ENDBRANCH   8  13
BRANCH   7  23
ATOM     23  N   UNL     1       0.024  -2.726   0.038  0.00  0.00    -0.357 N 
ATOM     24  H   UNL     1      -0.802  -2.227   0.140  0.00  0.00    +0.142 HD
ATOM     25  H   UNL     1       0.000  -3.692  -0.040  0.00  0.00    +0.142 HD
ENDBRANCH   7  23
TORSDOF 2
