REMARK  Name = CHEMBL234625
REMARK  7 active torsions:
REMARK  status: ('A' for Active; 'I' for Inactive)
REMARK    1  A    between atoms: C_1  and  N_2
REMARK    2  A    between atoms: N_2  and  C_3
REMARK    3  A    between atoms: N_2  and  C_4
REMARK    4  A    between atoms: C_4  and  C_5
REMARK    5  A    between atoms: C_5  and  C_6
REMARK    6  A    between atoms: C_9  and  N_12
REMARK    7  A    between atoms: C_17  and  C_19
REMARK                            x       y       z     vdW  Elec       q    Type
REMARK                         _______ _______ _______ _____ _____    ______ ____
ROOT
ATOM      1  N   UNL     1      -6.680  -3.999  -0.081  0.00  0.00    -0.284 N 
ATOM      2  C   UNL     1      -7.463  -3.855   1.053  0.00  0.00    +0.220 A 
ATOM      3  N   UNL     1      -6.990  -3.164   2.080  0.00  0.00    -0.221 NA
ATOM      4  C   UNL     1      -7.707  -3.004   3.182  0.00  0.00    +0.136 A 
ATOM      5  C   UNL     1      -8.969  -3.568   3.257  0.00  0.00    +0.085 A 
ATOM      6  C   UNL     1      -9.441  -4.291   2.157  0.00  0.00    +0.094 A 
ATOM      7  N   UNL     1      -8.666  -4.406   1.080  0.00  0.00    -0.213 NA
ATOM      8 CL   UNL     1      -9.942  -3.382   4.683  0.00  0.00    -0.080 Cl
ATOM      9  H   UNL     1      -7.044  -4.429  -0.871  0.00  0.00    +0.155 HD
ENDROOT
BRANCH   6  10
ATOM     10  C   UNL     1     -10.785  -4.915   2.187  0.00  0.00    +0.004 A 
ATOM     11  C   UNL     1     -11.284  -5.434   3.387  0.00  0.00    +0.011 A 
ATOM     12  C   UNL     1     -12.519  -6.010   3.429  0.00  0.00    +0.010 A 
ATOM     13  C   UNL     1     -13.294  -6.083   2.267  0.00  0.00    -0.000 A 
ATOM     14  C   UNL     1     -14.623  -6.619   1.967  0.00  0.00    +0.027 A 
ATOM     15  C   UNL     1     -14.847  -6.404   0.660  0.00  0.00    +0.083 A 
ATOM     16  N   UNL     1     -13.771  -5.775   0.099  0.00  0.00    -0.361 N 
ATOM     17  H   UNL     1     -13.700  -5.517  -0.833  0.00  0.00    +0.165 HD
ATOM     18  C   UNL     1     -12.802  -5.564   1.055  0.00  0.00    +0.047 A 
ATOM     19  C   UNL     1     -11.545  -4.975   1.025  0.00  0.00    +0.036 A 
ENDBRANCH   6  10
BRANCH   1  23
ATOM     20  C   UNL     1      -2.761  -2.587  -0.100  0.00  0.00    -0.049 A 
ATOM     21  C   UNL     1      -3.307  -3.093   1.066  0.00  0.00    +0.005 A 
ATOM     22  C   UNL     1      -4.606  -3.562   1.075  0.00  0.00    +0.023 A 
ATOM     23  C   UNL     1      -5.365  -3.525  -0.087  0.00  0.00    +0.034 A 
ATOM     24  C   UNL     1      -4.814  -3.016  -1.257  0.00  0.00    +0.023 A 
ATOM     25  C   UNL     1      -3.516  -2.544  -1.258  0.00  0.00    +0.005 A 
BRANCH  20  26
ATOM     26  C   UNL     1      -1.344  -2.076  -0.107  0.00  0.00    +0.016 C 
BRANCH  26  27
ATOM     27  C   UNL     1      -1.337  -0.588   0.248  0.00  0.00    -0.075 C 
BRANCH  27  29
ATOM     28  C   UNL     1       0.043   1.362   0.464  0.00  0.00    -0.097 C 
ATOM     29  N   UNL     1       0.045  -0.090   0.241  0.00  0.00    +0.376 N 
ATOM     30  C   UNL     1       0.808  -0.748   1.311  0.00  0.00    -0.097 C 
ATOM     31  H   UNL     1       0.472  -0.293  -0.650  0.00  0.00    -0.083 HD
ENDBRANCH  27  29
ENDBRANCH  26  27
ENDBRANCH  20  26
ENDBRANCH   1  23
TORSDOF 5
