REMARK  Name = CHEMBL495735
REMARK  7 active torsions:
REMARK  status: ('A' for Active; 'I' for Inactive)
REMARK    1  A    between atoms: C_1  and  N_2
REMARK    2  A    between atoms: N_5  and  C_8
REMARK    3  A    between atoms: C_15  and  C_18
REMARK    4  A    between atoms: C_19  and  N_38
REMARK    5  A    between atoms: C_22  and  N_30
REMARK    6  A    between atoms: N_30  and  C_31
REMARK    7  A    between atoms: C_31  and  C_32
REMARK                            x       y       z     vdW  Elec       q    Type
REMARK                         _______ _______ _______ _____ _____    ______ ____
ROOT
ATOM      1  C   UNL     1      -0.613  -7.999   5.734  0.00  0.00    +0.103 A 
ATOM      2  C   UNL     1       0.579  -7.965   6.459  0.00  0.00    +0.050 A 
ATOM      3  C   UNL     1       0.780  -8.971   7.511  0.00  0.00    +0.022 A 
ATOM      4  C   UNL     1       1.952  -8.990   8.272  0.00  0.00    +0.034 A 
ATOM      5  C   UNL     1       2.111  -9.949   9.255  0.00  0.00    +0.028 A 
ATOM      6  C   UNL     1       1.109 -10.891   9.486  0.00  0.00    +0.025 A 
ATOM      7  C   UNL     1      -0.049 -10.879   8.740  0.00  0.00    +0.028 A 
ATOM      8  C   UNL     1      -0.228  -9.922   7.746  0.00  0.00    +0.051 A 
ATOM      9  N   UNL     1      -1.387  -9.901   6.992  0.00  0.00    -0.321 N 
ATOM     10  H   UNL     1      -2.075 -10.562   7.164  0.00  0.00    +0.169 HD
ATOM     11  C   UNL     1      -1.585  -8.984   6.032  0.00  0.00    +0.262 A 
ATOM     12  O   UNL     1      -2.625  -9.003   5.397  0.00  0.00    -0.267 OA
ENDROOT
BRANCH   1  20
ATOM     13  C   UNL     1      -0.898  -3.747   1.526  0.00  0.00    +0.032 A 
ATOM     14  C   UNL     1      -2.199  -4.215   1.348  0.00  0.00    +0.025 A 
ATOM     15  C   UNL     1      -2.676  -5.256   2.116  0.00  0.00    +0.029 A 
ATOM     16  C   UNL     1      -1.859  -5.844   3.071  0.00  0.00    +0.067 A 
ATOM     17  C   UNL     1      -0.546  -5.378   3.258  0.00  0.00    +0.091 A 
ATOM     18  C   UNL     1      -0.070  -4.325   2.470  0.00  0.00    +0.053 A 
ATOM     19  N   UNL     1       0.010  -6.127   4.242  0.00  0.00    -0.227 NA
ATOM     20  C   UNL     1      -0.861  -7.011   4.670  0.00  0.00    +0.146 A 
ATOM     21  N   UNL     1      -2.035  -6.878   3.977  0.00  0.00    -0.338 N 
ATOM     22  H   UNL     1      -2.839  -7.407   4.097  0.00  0.00    +0.167 HD
BRANCH  13  27
ATOM     23  C   UNL     1       0.016   1.397  -0.107  0.00  0.00    +0.105 C 
ATOM     24  N   UNL     1       0.041  -0.072  -0.093  0.00  0.00    -0.302 NA
ATOM     25  C   UNL     1      -1.318  -0.622  -0.194  0.00  0.00    +0.103 C 
ATOM     26  C   UNL     1      -1.238  -2.143  -0.357  0.00  0.00    +0.120 C 
ATOM     27  N   UNL     1      -0.426  -2.689   0.741  0.00  0.00    -0.327 N 
ATOM     28  C   UNL     1       0.895  -2.094   0.991  0.00  0.00    +0.120 C 
ATOM     29  C   UNL     1       0.732  -0.575   1.102  0.00  0.00    +0.103 C 
ENDBRANCH  13  27
ENDBRANCH   1  20
BRANCH   2  30
ATOM     30  N   UNL     1       1.539  -7.017   6.196  0.00  0.00    -0.357 N 
ATOM     31  H   UNL     1       1.360  -6.311   5.556  0.00  0.00    +0.142 HD
ATOM     32  H   UNL     1       2.395  -7.055   6.651  0.00  0.00    +0.142 HD
ENDBRANCH   2  30
BRANCH   5  33
ATOM     33  N   UNL     1       3.281  -9.975  10.021  0.00  0.00    -0.340 N 
ATOM     34  H   UNL     1       3.980  -9.320   9.862  0.00  0.00    +0.146 HD
BRANCH  33  35
ATOM     35  C   UNL     1       3.453 -10.990  11.064  0.00  0.00    +0.136 C 
BRANCH  35  36
ATOM     36  C   UNL     1       4.788 -10.799  11.736  0.00  0.00    -0.030 A 
ATOM     37  C   UNL     1       5.908 -11.442  11.242  0.00  0.00    +0.005 A 
ATOM     38  C   UNL     1       7.133 -11.268  11.858  0.00  0.00    +0.000 A 
ATOM     39  C   UNL     1       7.238 -10.450  12.968  0.00  0.00    +0.000 A 
ATOM     40  C   UNL     1       6.119  -9.807  13.461  0.00  0.00    +0.000 A 
ATOM     41  C   UNL     1       4.894  -9.978  12.842  0.00  0.00    +0.005 A 
ENDBRANCH  35  36
ENDBRANCH  33  35
ENDBRANCH   5  33
TORSDOF 6
