REMARK  Name = CHEMBL118386
REMARK  6 active torsions:
REMARK  status: ('A' for Active; 'I' for Inactive)
REMARK    1  A    between atoms: C_3  and  C_16
REMARK    2  A    between atoms: C_5  and  O_7
REMARK    3  A    between atoms: O_7  and  C_8
REMARK    4  A    between atoms: C_8  and  C_9
REMARK    5  A    between atoms: C_9  and  N_10
REMARK    6  A    between atoms: C_20  and  C_25
REMARK                            x       y       z     vdW  Elec       q    Type
REMARK                         _______ _______ _______ _____ _____    ______ ____
ROOT
ATOM      1  C   UNL     1       0.041   1.379  -0.082  0.00  0.00    +0.004 A 
ATOM      2  C   UNL     1       1.226   2.076  -0.211  0.00  0.00    +0.009 A 
ATOM      3  C   UNL     1       2.431   1.385  -0.324  0.00  0.00    -0.012 A 
ATOM      4  C   UNL     1       2.436  -0.007  -0.306  0.00  0.00    +0.054 A 
ATOM      5  C   UNL     1       1.242  -0.698  -0.176  0.00  0.00    +0.121 A 
ATOM      6  C   UNL     1       0.046  -0.003  -0.064  0.00  0.00    +0.045 A 
ENDROOT
BRANCH   3   7
ATOM      7  C   UNL     1       3.707   2.131  -0.463  0.00  0.00    +0.019 A 
ATOM      8  C   UNL     1       4.465   2.036  -1.651  0.00  0.00    +0.123 A 
ATOM      9  N   UNL     1       5.590   2.697  -1.768  0.00  0.00    -0.235 NA
ATOM     10  C   UNL     1       6.042   3.471  -0.774  0.00  0.00    +0.163 A 
ATOM     11  C   UNL     1       7.186   4.266  -0.642  0.00  0.00    +0.046 A 
ATOM     12  C   UNL     1       7.139   4.854   0.624  0.00  0.00    +0.145 A 
ATOM     13  N   UNL     1       6.049   4.458   1.237  0.00  0.00    -0.173 NA
ATOM     14  N   UNL     1       5.337   3.594   0.397  0.00  0.00    -0.221 N 
ATOM     15  C   UNL     1       4.159   2.924   0.554  0.00  0.00    +0.124 A 
BRANCH  11  16
ATOM     16  C   UNL     1       8.252   4.449  -1.659  0.00  0.00    -0.006 A 
ATOM     17  C   UNL     1       8.684   5.723  -2.014  0.00  0.00    +0.016 A 
ATOM     18  C   UNL     1       9.658   5.849  -2.944  0.00  0.00    +0.046 A 
ATOM     19  S   UNL     1      10.006   4.149  -3.361  0.00  0.00    -0.104 S 
ATOM     20  C   UNL     1       8.833   3.370  -2.263  0.00  0.00    +0.053 A 
ENDBRANCH  11  16
ENDBRANCH   3   7
BRANCH   5  21
ATOM     21  O   UNL     1       1.242  -2.057  -0.159  0.00  0.00    -0.491 OA
BRANCH  21  22
ATOM     22  C   UNL     1      -0.025  -2.704  -0.022  0.00  0.00    +0.244 C 
BRANCH  22  23
ATOM     23  C   UNL     1       0.175  -4.221  -0.023  0.00  0.00    +0.125 C 
BRANCH  23  24
ATOM     24  N   UNL     1       0.941  -4.615   1.167  0.00  0.00    -0.295 NA
ATOM     25  C   UNL     1       1.544  -5.944   0.989  0.00  0.00    +0.112 C 
ATOM     26  C   UNL     1       2.381  -6.288   2.224  0.00  0.00    +0.175 C 
ATOM     27  O   UNL     1       1.552  -6.221   3.388  0.00  0.00    -0.377 OA
ATOM     28  C   UNL     1       0.949  -4.941   3.592  0.00  0.00    +0.175 C 
ATOM     29  C   UNL     1       0.098  -4.583   2.371  0.00  0.00    +0.112 C 
ENDBRANCH  23  24
ENDBRANCH  22  23
ENDBRANCH  21  22
ENDBRANCH   5  21
TORSDOF 6
