REMARK  Name = CHEMBL324489
REMARK  3 active torsions:
REMARK  status: ('A' for Active; 'I' for Inactive)
REMARK    1  A    between atoms: C_1  and  N_2
REMARK    2  A    between atoms: C_8  and  C_10
REMARK    3  A    between atoms: C_17  and  C_20
REMARK                            x       y       z     vdW  Elec       q    Type
REMARK                         _______ _______ _______ _____ _____    ______ ____
ROOT
ATOM      1  C   UNL     1       2.538  -4.145   1.110  0.00  0.00    +0.038 A 
ATOM      2  C   UNL     1       2.156  -3.672   2.373  0.00  0.00    +0.015 A 
ATOM      3  C   UNL     1       2.748  -4.151   3.504  0.00  0.00    +0.027 A 
ATOM      4  C   UNL     1       3.745  -5.120   3.419  0.00  0.00    +0.047 A 
ATOM      5  C   UNL     1       4.139  -5.605   2.154  0.00  0.00    +0.001 A 
ATOM      6  C   UNL     1       3.528  -5.117   1.000  0.00  0.00    +0.023 A 
ATOM      7  C   UNL     1       5.187  -6.595   2.402  0.00  0.00    +0.036 A 
ATOM      8  C   UNL     1       5.362  -6.654   3.747  0.00  0.00    +0.053 A 
ATOM      9  N   UNL     1       4.502  -5.773   4.363  0.00  0.00    -0.354 N 
ATOM     10  H   UNL     1       4.439  -5.633   5.321  0.00  0.00    +0.166 HD
ENDROOT
BRANCH   8  11
ATOM     11  C   UNL     1       6.328  -7.527   4.442  0.00  0.00    +0.063 A 
ATOM     12  C   UNL     1       5.883  -8.535   5.272  0.00  0.00    +0.025 A 
ATOM     13  C   UNL     1       6.834  -9.359   5.927  0.00  0.00    -0.001 A 
ATOM     14  C   UNL     1       6.409 -10.391   6.776  0.00  0.00    +0.010 A 
ATOM     15  C   UNL     1       7.331 -11.180   7.402  0.00  0.00    +0.001 A 
ATOM     16  C   UNL     1       8.690 -10.969   7.205  0.00  0.00    +0.002 A 
ATOM     17  C   UNL     1       9.131  -9.961   6.376  0.00  0.00    +0.026 A 
ATOM     18  C   UNL     1       8.210  -9.143   5.726  0.00  0.00    +0.049 A 
ATOM     19  N   UNL     1       8.647  -8.133   4.893  0.00  0.00    -0.322 N 
ATOM     20  C   UNL     1       7.770  -7.338   4.253  0.00  0.00    +0.258 A 
ATOM     21  O   UNL     1       8.176  -6.455   3.518  0.00  0.00    -0.267 OA
ATOM     22  H   UNL     1       9.599  -7.997   4.765  0.00  0.00    +0.169 HD
ENDBRANCH   8  11
BRANCH   1  30
ATOM     23  C   UNL     1       3.239   1.431  -1.570  0.00  0.00    +0.105 C 
ATOM     24  N   UNL     1       2.456   0.311  -1.030  0.00  0.00    -0.302 NA
ATOM     25  C   UNL     1       2.167  -0.680  -2.075  0.00  0.00    +0.103 C 
ATOM     26  C   UNL     1       1.202  -1.734  -1.521  0.00  0.00    +0.123 C 
ATOM     27  N   UNL     1       1.772  -2.284  -0.282  0.00  0.00    -0.295 N 
ATOM     28  C   UNL     1       2.214  -1.343   0.759  0.00  0.00    +0.123 C 
ATOM     29  C   UNL     1       3.139  -0.305   0.115  0.00  0.00    +0.103 C 
ATOM     30  C   UNL     1       1.886  -3.615  -0.104  0.00  0.00    +0.247 C 
ATOM     31  O   UNL     1       1.452  -4.380  -0.944  0.00  0.00    -0.270 OA
ENDBRANCH   1  30
TORSDOF 2
