REMARK  Name = CHEMBL362486
REMARK  10 active torsions:
REMARK  status: ('A' for Active; 'I' for Inactive)
REMARK    1  A    between atoms: C_1  and  O_2
REMARK    2  A    between atoms: O_2  and  C_3
REMARK    3  A    between atoms: C_6  and  N_9
REMARK    4  A    between atoms: N_12  and  C_13
REMARK    5  A    between atoms: C_16  and  S_19
REMARK    6  A    between atoms: S_19  and  C_20
REMARK    7  A    between atoms: C_27  and  O_32
REMARK    8  A    between atoms: C_28  and  O_30
REMARK    9  A    between atoms: O_30  and  C_31
REMARK   10  A    between atoms: O_32  and  C_33
REMARK                            x       y       z     vdW  Elec       q    Type
REMARK                         _______ _______ _______ _____ _____    ______ ____
ROOT
ATOM      1  C   UNL     1      -6.304  -5.941  -0.127  0.00  0.00    +0.035 A 
ATOM      2  C   UNL     1      -5.133  -6.687  -0.117  0.00  0.00    +0.024 A 
ATOM      3  C   UNL     1      -5.193  -8.066  -0.114  0.00  0.00    +0.017 A 
ATOM      4  C   UNL     1      -6.426  -8.707  -0.120  0.00  0.00    +0.013 A 
ATOM      5  C   UNL     1      -7.597  -7.960  -0.129  0.00  0.00    +0.017 A 
ATOM      6  C   UNL     1      -7.536  -6.581  -0.128  0.00  0.00    +0.024 A 
ENDROOT
BRANCH   1  10
ATOM      7  N   UNL     1      -5.114  -2.572  -0.681  0.00  0.00    -0.269 N 
ATOM      8  C   UNL     1      -5.232  -3.912  -0.765  0.00  0.00    +0.308 C 
ATOM      9  O   UNL     1      -4.428  -4.554  -1.413  0.00  0.00    -0.252 OA
ATOM     10  N   UNL     1      -6.242  -4.540  -0.130  0.00  0.00    -0.269 N 
ATOM     11  H   UNL     1      -5.709  -2.068  -0.105  0.00  0.00    +0.156 HD
ATOM     12  H   UNL     1      -6.925  -4.024   0.324  0.00  0.00    +0.156 HD
BRANCH   7  16
ATOM     13  C   UNL     1      -2.193  -0.593  -2.904  0.00  0.00    +0.120 A 
ATOM     14  C   UNL     1      -2.796  -1.734  -3.412  0.00  0.00    +0.047 A 
ATOM     15  C   UNL     1      -3.764  -2.390  -2.677  0.00  0.00    +0.027 A 
ATOM     16  C   UNL     1      -4.132  -1.907  -1.428  0.00  0.00    +0.035 A 
ATOM     17  C   UNL     1      -3.528  -0.766  -0.919  0.00  0.00    +0.027 A 
ATOM     18  C   UNL     1      -2.556  -0.114  -1.654  0.00  0.00    +0.047 A 
BRANCH  13  20
ATOM     19  C   UNL     1      -0.916  -0.496  -4.907  0.00  0.00    +0.277 C 
ATOM     20  O   UNL     1      -1.241   0.053  -3.628  0.00  0.00    -0.495 OA
ENDBRANCH  13  20
ENDBRANCH   7  16
ENDBRANCH   1  10
BRANCH   4  21
ATOM     21  S   UNL     1      -6.503 -10.467  -0.116  0.00  0.00    -0.089 S 
BRANCH  21  22
ATOM     22  C   UNL     1      -6.381 -10.903  -1.819  0.00  0.00    +0.023 A 
ATOM     23  C   UNL     1      -6.153  -9.938  -2.790  0.00  0.00    +0.035 A 
ATOM     24  C   UNL     1      -6.061 -10.312  -4.122  0.00  0.00    +0.112 A 
ATOM     25  N   UNL     1      -6.184 -11.564  -4.501  0.00  0.00    -0.255 NA
ATOM     26  C   UNL     1      -6.404 -12.547  -3.619  0.00  0.00    +0.076 A 
ATOM     27  C   UNL     1      -6.505 -12.248  -2.239  0.00  0.00    +0.018 A 
ATOM     28  C   UNL     1      -6.732 -13.281  -1.317  0.00  0.00    +0.060 A 
ATOM     29  C   UNL     1      -6.848 -14.567  -1.758  0.00  0.00    +0.162 A 
ATOM     30  C   UNL     1      -6.742 -14.867  -3.124  0.00  0.00    +0.164 A 
ATOM     31  C   UNL     1      -6.534 -13.880  -4.043  0.00  0.00    +0.077 A 
BRANCH  30  32
ATOM     32  O   UNL     1      -6.861 -16.156  -3.538  0.00  0.00    -0.491 OA
ATOM     33  C   UNL     1      -6.745 -16.399  -4.942  0.00  0.00    +0.277 C 
ENDBRANCH  30  32
BRANCH  29  34
ATOM     34  O   UNL     1      -7.066 -15.568  -0.864  0.00  0.00    -0.491 OA
ATOM     35  C   UNL     1      -7.163 -15.198   0.513  0.00  0.00    +0.277 C 
ENDBRANCH  29  34
ENDBRANCH  21  22
ENDBRANCH   4  21
TORSDOF 7
