REMARK  Name = CHEMBL223999
REMARK  8 active torsions:
REMARK  status: ('A' for Active; 'I' for Inactive)
REMARK    1  A    between atoms: C_1  and  N_2
REMARK    2  A    between atoms: C_5  and  C_8
REMARK    3  A    between atoms: C_8  and  C_9
REMARK    4  A    between atoms: C_21  and  C_22
REMARK    5  A    between atoms: C_24  and  C_27
REMARK    6  A    between atoms: C_28  and  C_29
REMARK    7  A    between atoms: C_29  and  O_30
REMARK    8  A    between atoms: O_30  and  C_31
REMARK                            x       y       z     vdW  Elec       q    Type
REMARK                         _______ _______ _______ _____ _____    ______ ____
ROOT
ATOM      1  C   UNL     1       0.117  -4.701   2.234  0.00  0.00    -0.047 A 
ATOM      2  C   UNL     1       1.490  -4.854   2.300  0.00  0.00    +0.004 A 
ATOM      3  C   UNL     1       2.078  -5.375   3.434  0.00  0.00    +0.010 A 
ATOM      4  C   UNL     1       1.285  -5.749   4.520  0.00  0.00    +0.006 A 
ATOM      5  C   UNL     1      -0.096  -5.592   4.445  0.00  0.00    -0.033 A 
ATOM      6  C   UNL     1      -0.674  -5.065   3.309  0.00  0.00    +0.008 A 
ATOM      7  C   UNL     1      -0.685  -6.075   5.748  0.00  0.00    +0.075 C 
ATOM      8  C   UNL     1       0.479  -6.530   6.592  0.00  0.00    +0.010 A 
ATOM      9  C   UNL     1       1.648  -6.327   5.839  0.00  0.00    +0.097 A 
ATOM     10  N   UNL     1       2.675  -6.722   6.568  0.00  0.00    -0.173 NA
ATOM     11  H   UNL     1       2.733  -7.535   8.526  0.00  0.00    +0.189 HD
ATOM     12  N   UNL     1       2.195  -7.186   7.798  0.00  0.00    -0.276 N 
ATOM     13  C   UNL     1       0.837  -7.059   7.795  0.00  0.00    +0.070 A 
ENDROOT
BRANCH  13  14
ATOM     14  C   UNL     1      -0.080  -7.430   8.896  0.00  0.00    +0.008 A 
ATOM     15  C   UNL     1       0.209  -7.077  10.207  0.00  0.00    +0.034 A 
ATOM     16  C   UNL     1      -0.668  -7.440  11.193  0.00  0.00    +0.063 A 
ATOM     17  S   UNL     1      -1.935  -8.299  10.275  0.00  0.00    -0.088 S 
ATOM     18  C   UNL     1      -1.235  -8.123   8.642  0.00  0.00    +0.056 A 
BRANCH  16  19
ATOM     19  C   UNL     1      -0.589  -7.194  12.601  0.00  0.00    -0.056 C 
ATOM     20  C   UNL     1      -0.523  -6.993  13.756  0.00  0.00    -0.056 C 
BRANCH  20  21
ATOM     21  C   UNL     1      -0.442  -6.740  15.204  0.00  0.00    +0.318 C 
BRANCH  21  22
ATOM     22  O   UNL     1      -1.585  -7.304  15.851  0.00  0.00    -0.480 OA
BRANCH  22  23
ATOM     23  C   UNL     1      -1.665  -7.159  17.200  0.00  0.00    +0.122 A 
ATOM     24  C   UNL     1      -0.666  -6.482  17.886  0.00  0.00    +0.046 A 
ATOM     25  C   UNL     1      -0.750  -6.335  19.257  0.00  0.00    +0.004 A 
ATOM     26  C   UNL     1      -1.827  -6.861  19.945  0.00  0.00    +0.000 A 
ATOM     27  C   UNL     1      -2.823  -7.537  19.264  0.00  0.00    +0.004 A 
ATOM     28  C   UNL     1      -2.747  -7.681  17.892  0.00  0.00    +0.046 A 
ENDBRANCH  22  23
ENDBRANCH  21  22
ENDBRANCH  20  21
ENDBRANCH  16  19
ENDBRANCH  13  14
BRANCH   1  29
ATOM     29  C   UNL     1      -0.518  -4.130   0.992  0.00  0.00    +0.038 C 
BRANCH  29  34
ATOM     30  C   UNL     1      -0.018   1.465   0.010  0.00  0.00    -0.096 C 
ATOM     31  N   UNL     1       0.002  -0.004   0.002  0.00  0.00    +0.378 N 
ATOM     32  C   UNL     1      -1.376  -0.511   0.004  0.00  0.00    -0.079 C 
ATOM     33  C   UNL     1      -1.361  -2.038  -0.087  0.00  0.00    -0.015 C 
ATOM     34  C   UNL     1      -0.605  -2.608   1.117  0.00  0.00    -0.010 C 
ATOM     35  C   UNL     1       0.807  -2.015   1.147  0.00  0.00    -0.015 C 
ATOM     36  C   UNL     1       0.712  -0.489   1.192  0.00  0.00    -0.079 C 
ATOM     37  H   UNL     1       0.477  -0.328  -0.827  0.00  0.00    -0.082 HD
ENDBRANCH  29  34
ENDBRANCH   1  29
TORSDOF 7
