REMARK  Name = CHEMBL257533
REMARK  3 active torsions:
REMARK  status: ('A' for Active; 'I' for Inactive)
REMARK    1  A    between atoms: C_3  and  N_18
REMARK    2  A    between atoms: C_6  and  C_7
REMARK    3  A    between atoms: N_21  and  C_22
REMARK                            x       y       z     vdW  Elec       q    Type
REMARK                         _______ _______ _______ _____ _____    ______ ____
ROOT
ATOM      1  C   UNL     1      -0.041   1.484  -0.368  0.00  0.00    +0.010 A 
ATOM      2  C   UNL     1       1.157   2.162  -0.324  0.00  0.00    +0.024 A 
ATOM      3  C   UNL     1       2.343   1.467  -0.114  0.00  0.00    +0.035 A 
ATOM      4  C   UNL     1       2.323   0.087   0.052  0.00  0.00    +0.024 A 
ATOM      5  C   UNL     1       1.127  -0.596   0.009  0.00  0.00    +0.010 A 
ATOM      6  C   UNL     1      -0.064   0.099  -0.202  0.00  0.00    -0.017 A 
ENDROOT
BRANCH   6   7
ATOM      7  C   UNL     1      -1.351  -0.633  -0.248  0.00  0.00    -0.002 A 
ATOM      8  C   UNL     1      -2.445  -0.214   0.508  0.00  0.00    +0.029 A 
ATOM      9  C   UNL     1      -3.631  -0.925   0.437  0.00  0.00    +0.114 A 
ATOM     10  N   UNL     1      -3.754  -1.989  -0.327  0.00  0.00    -0.236 NA
ATOM     11  C   UNL     1      -2.750  -2.440  -1.071  0.00  0.00    +0.158 A 
ATOM     12  C   UNL     1      -1.512  -1.771  -1.062  0.00  0.00    +0.067 A 
ATOM     13  C   UNL     1      -0.638  -2.502  -1.977  0.00  0.00    +0.148 A 
ATOM     14  N   UNL     1      -1.327  -3.498  -2.468  0.00  0.00    -0.157 NA
ATOM     15  N   UNL     1      -2.619  -3.497  -1.931  0.00  0.00    -0.258 N 
ATOM     16  H   UNL     1      -3.315  -4.138  -2.143  0.00  0.00    +0.191 HD
ATOM     17  N   UNL     1       0.692  -2.192  -2.273  0.00  0.00    -0.341 N 
ATOM     18  H   UNL     1       1.117  -1.427  -1.854  0.00  0.00    +0.144 HD
ATOM     19  H   UNL     1       1.190  -2.742  -2.897  0.00  0.00    +0.144 HD
ENDBRANCH   6   7
BRANCH   3  20
ATOM     20  N   UNL     1       3.557   2.157  -0.069  0.00  0.00    -0.269 N 
ATOM     21  C   UNL     1       3.604   3.407   0.433  0.00  0.00    +0.308 C 
ATOM     22  O   UNL     1       2.611   3.899   0.933  0.00  0.00    -0.252 OA
ATOM     23  N   UNL     1       4.752   4.112   0.381  0.00  0.00    -0.269 N 
ATOM     24  H   UNL     1       4.367   1.737  -0.400  0.00  0.00    +0.156 HD
ATOM     25  H   UNL     1       5.524   3.748  -0.079  0.00  0.00    +0.156 HD
BRANCH  23  26
ATOM     26  C   UNL     1       4.830   5.377   0.994  0.00  0.00    +0.042 A 
ATOM     27  C   UNL     1       6.023   5.824   1.540  0.00  0.00    +0.031 A 
ATOM     28  C   UNL     1       6.061   7.047   2.122  0.00  0.00    +0.047 A 
ATOM     29  S   UNL     1       4.381   7.612   1.911  0.00  0.00    -0.103 S 
ATOM     30  C   UNL     1       3.737   6.184   1.056  0.00  0.00    +0.068 A 
ENDBRANCH  23  26
ENDBRANCH   3  20
TORSDOF 3
