REMARK  Name = CHEMBL452522
REMARK  6 active torsions:
REMARK  status: ('A' for Active; 'I' for Inactive)
REMARK    1  A    between atoms: C_1  and  C_2
REMARK    2  A    between atoms: C_6  and  N_8
REMARK    3  A    between atoms: N_11  and  C_12
REMARK    4  A    between atoms: C_15  and  C_18
REMARK    5  A    between atoms: C_22  and  C_28
REMARK    6  A    between atoms: C_26  and  N_27
REMARK                            x       y       z     vdW  Elec       q    Type
REMARK                         _______ _______ _______ _____ _____    ______ ____
ROOT
ATOM      1  C   UNL     1      -0.066  -6.218   3.647  0.00  0.00    +0.035 A 
ATOM      2  C   UNL     1      -0.055  -6.910   2.442  0.00  0.00    +0.024 A 
ATOM      3  C   UNL     1      -0.031  -8.289   2.437  0.00  0.00    +0.010 A 
ATOM      4  C   UNL     1      -0.019  -8.989   3.643  0.00  0.00    -0.013 A 
ATOM      5  C   UNL     1      -0.031  -8.292   4.851  0.00  0.00    +0.010 A 
ATOM      6  C   UNL     1      -0.049  -6.914   4.850  0.00  0.00    +0.024 A 
ENDROOT
BRANCH   4   7
ATOM      7  C   UNL     1       0.005 -10.471   3.640  0.00  0.00    +0.040 A 
ATOM      8  C   UNL     1      -1.078 -11.203   3.123  0.00  0.00    +0.125 A 
ATOM      9  N   UNL     1      -1.049 -12.516   3.124  0.00  0.00    -0.235 NA
ATOM     10  C   UNL     1      -0.001 -13.190   3.612  0.00  0.00    +0.165 A 
ATOM     11  C   UNL     1       0.268 -14.558   3.727  0.00  0.00    +0.047 A 
ATOM     12  C   UNL     1       1.528 -14.686   4.321  0.00  0.00    +0.145 A 
ATOM     13  N   UNL     1       2.008 -13.489   4.558  0.00  0.00    -0.171 NA
ATOM     14  N   UNL     1       1.084 -12.530   4.130  0.00  0.00    -0.200 N 
ATOM     15  C   UNL     1       1.103 -11.160   4.145  0.00  0.00    +0.129 A 
BRANCH  11  16
ATOM     16  C   UNL     1      -0.620 -15.668   3.300  0.00  0.00    -0.006 A 
ATOM     17  C   UNL     1      -0.132 -16.706   2.512  0.00  0.00    +0.016 A 
ATOM     18  C   UNL     1      -0.972 -17.700   2.142  0.00  0.00    +0.046 A 
ATOM     19  S   UNL     1      -2.507 -17.200   2.904  0.00  0.00    -0.104 S 
ATOM     20  C   UNL     1      -1.933 -15.696   3.675  0.00  0.00    +0.053 A 
ENDBRANCH  11  16
BRANCH  15  21
ATOM     21  N   UNL     1       2.185 -10.479   4.655  0.00  0.00    -0.343 N 
ATOM     22  H   UNL     1       2.186  -9.509   4.665  0.00  0.00    +0.144 HD
ATOM     23  H   UNL     1       2.945 -10.970   5.005  0.00  0.00    +0.144 HD
ENDBRANCH  15  21
ENDBRANCH   4   7
BRANCH   1  27
ATOM     24  N   UNL     1      -0.679  -2.809   2.618  0.00  0.00    -0.269 N 
ATOM     25  C   UNL     1      -0.743  -4.154   2.676  0.00  0.00    +0.308 C 
ATOM     26  O   UNL     1      -1.390  -4.768   1.849  0.00  0.00    -0.252 OA
ATOM     27  N   UNL     1      -0.090  -4.819   3.649  0.00  0.00    -0.269 N 
ATOM     28  H   UNL     1      -0.103  -2.325   3.230  0.00  0.00    +0.156 HD
ATOM     29  H   UNL     1       0.364  -4.327   4.352  0.00  0.00    +0.156 HD
BRANCH  24  35
ATOM     30  C   UNL     1      -1.186   1.026  -0.417  0.00  0.00    +0.044 C 
ATOM     31  C   UNL     1      -1.712  -0.250   0.188  0.00  0.00    -0.049 A 
ATOM     32  C   UNL     1      -2.952  -0.733  -0.189  0.00  0.00    +0.003 A 
ATOM     33  C   UNL     1      -3.439  -1.904   0.363  0.00  0.00    +0.002 A 
ATOM     34  C   UNL     1      -2.687  -2.595   1.294  0.00  0.00    +0.023 A 
ATOM     35  C   UNL     1      -1.442  -2.112   1.675  0.00  0.00    +0.035 A 
ATOM     36  C   UNL     1      -0.954  -0.939   1.114  0.00  0.00    +0.026 A 
ENDBRANCH  24  35
ENDBRANCH   1  27
TORSDOF 5
