REMARK  Name = CHEMBL225334
REMARK  8 active torsions:
REMARK  status: ('A' for Active; 'I' for Inactive)
REMARK    1  A    between atoms: C_1  and  N_2
REMARK    2  A    between atoms: N_5  and  C_9
REMARK    3  A    between atoms: C_9  and  C_10
REMARK    4  A    between atoms: C_22  and  C_23
REMARK    5  A    between atoms: C_25  and  C_28
REMARK    6  A    between atoms: C_29  and  C_30
REMARK    7  A    between atoms: C_30  and  O_31
REMARK    8  A    between atoms: O_31  and  C_32
REMARK                            x       y       z     vdW  Elec       q    Type
REMARK                         _______ _______ _______ _____ _____    ______ ____
ROOT
ATOM      1  C   UNL     1       0.473  -4.802  -0.369  0.00  0.00    -0.030 A 
ATOM      2  C   UNL     1      -0.107  -5.134  -1.581  0.00  0.00    +0.006 A 
ATOM      3  C   UNL     1       0.646  -5.728  -2.572  0.00  0.00    +0.011 A 
ATOM      4  C   UNL     1       1.998  -5.996  -2.354  0.00  0.00    +0.006 A 
ATOM      5  C   UNL     1       2.574  -5.659  -1.133  0.00  0.00    -0.033 A 
ATOM      6  C   UNL     1       1.814  -5.060  -0.149  0.00  0.00    +0.009 A 
ATOM      7  C   UNL     1       4.027  -6.061  -1.181  0.00  0.00    +0.075 C 
ATOM      8  C   UNL     1       4.249  -6.666  -2.546  0.00  0.00    +0.010 A 
ATOM      9  C   UNL     1       3.024  -6.617  -3.230  0.00  0.00    +0.097 A 
ATOM     10  N   UNL     1       3.205  -7.144  -4.427  0.00  0.00    -0.173 NA
ATOM     11  H   UNL     1       4.950  -7.959  -5.314  0.00  0.00    +0.189 HD
ATOM     12  N   UNL     1       4.542  -7.542  -4.540  0.00  0.00    -0.276 N 
ATOM     13  C   UNL     1       5.171  -7.239  -3.368  0.00  0.00    +0.070 A 
ENDROOT
BRANCH  13  14
ATOM     14  C   UNL     1       6.596  -7.486  -3.050  0.00  0.00    +0.008 A 
ATOM     15  C   UNL     1       7.591  -7.175  -3.965  0.00  0.00    +0.034 A 
ATOM     16  C   UNL     1       8.894  -7.421  -3.628  0.00  0.00    +0.063 A 
ATOM     17  S   UNL     1       8.736  -8.105  -1.987  0.00  0.00    -0.088 S 
ATOM     18  C   UNL     1       6.959  -8.022  -1.841  0.00  0.00    +0.056 A 
BRANCH  16  19
ATOM     19  C   UNL     1      10.080  -7.189  -4.395  0.00  0.00    -0.056 C 
ATOM     20  C   UNL     1      11.053  -6.998  -5.024  0.00  0.00    -0.056 C 
BRANCH  20  21
ATOM     21  C   UNL     1      12.273  -6.760  -5.813  0.00  0.00    +0.318 C 
BRANCH  21  22
ATOM     22  O   UNL     1      13.416  -7.169  -5.059  0.00  0.00    -0.480 OA
BRANCH  22  23
ATOM     23  C   UNL     1      14.631  -7.015  -5.647  0.00  0.00    +0.122 A 
ATOM     24  C   UNL     1      14.722  -6.476  -6.922  0.00  0.00    +0.046 A 
ATOM     25  C   UNL     1      15.959  -6.320  -7.518  0.00  0.00    +0.004 A 
ATOM     26  C   UNL     1      17.105  -6.701  -6.845  0.00  0.00    +0.000 A 
ATOM     27  C   UNL     1      17.016  -7.240  -5.574  0.00  0.00    +0.004 A 
ATOM     28  C   UNL     1      15.783  -7.392  -4.972  0.00  0.00    +0.046 A 
ENDBRANCH  22  23
ENDBRANCH  21  22
ENDBRANCH  20  21
ENDBRANCH  16  19
ENDBRANCH  13  14
BRANCH   1  29
ATOM     29  C   UNL     1      -0.355  -4.152   0.709  0.00  0.00    +0.143 C 
BRANCH  29  34
ATOM     30  C   UNL     1      -0.018   1.465   0.010  0.00  0.00    +0.105 C 
ATOM     31  N   UNL     1       0.002  -0.004   0.002  0.00  0.00    -0.296 NA
ATOM     32  C   UNL     1      -1.364  -0.550   0.038  0.00  0.00    +0.103 C 
ATOM     33  C   UNL     1      -1.304  -2.045  -0.282  0.00  0.00    +0.123 C 
ATOM     34  N   UNL     1      -0.301  -2.696   0.556  0.00  0.00    -0.295 N 
ATOM     35  C   UNL     1       0.664  -2.022   1.190  0.00  0.00    +0.230 C 
ATOM     36  O   UNL     1       1.476  -2.646   1.841  0.00  0.00    -0.274 OA
ATOM     37  C   UNL     1       0.786  -0.526   1.129  0.00  0.00    +0.180 C 
ENDBRANCH  29  34
ENDBRANCH   1  29
TORSDOF 7
