REMARK  Name = CHEMBL24137
REMARK  8 active torsions:
REMARK  status: ('A' for Active; 'I' for Inactive)
REMARK    1  A    between atoms: C_1  and  O_2
REMARK    2  A    between atoms: O_2  and  C_3
REMARK    3  A    between atoms: C_8  and  O_9
REMARK    4  A    between atoms: O_9  and  C_10
REMARK    5  A    between atoms: C_10  and  C_11
REMARK    6  A    between atoms: C_11  and  C_12
REMARK    7  A    between atoms: C_12  and  N_13
REMARK    8  A    between atoms: N_23  and  C_24
REMARK                            x       y       z     vdW  Elec       q    Type
REMARK                         _______ _______ _______ _____ _____    ______ ____
ROOT
ATOM      1  C   UNL     1       1.273  -0.502   0.679  0.00  0.00    +0.162 A 
ATOM      2  C   UNL     1       1.623   0.213   1.789  0.00  0.00    +0.062 A 
ATOM      3  C   UNL     1       2.338  -0.411   2.818  0.00  0.00    +0.044 A 
ATOM      4  C   UNL     1       2.694  -1.778   2.704  0.00  0.00    +0.080 A 
ATOM      5  C   UNL     1       2.325  -2.491   1.557  0.00  0.00    +0.078 A 
ATOM      6  C   UNL     1       1.617  -1.856   0.561  0.00  0.00    +0.164 A 
ATOM      7  N   UNL     1       3.379  -2.352   3.705  0.00  0.00    -0.235 NA
ATOM      8  C   UNL     1       3.711  -1.657   4.768  0.00  0.00    +0.223 A 
ATOM      9  N   UNL     1       3.400  -0.380   4.919  0.00  0.00    -0.220 NA
ATOM     10  C   UNL     1       2.725   0.284   3.989  0.00  0.00    +0.134 A 
ATOM     11  N   UNL     1       2.408   1.617   4.160  0.00  0.00    -0.297 N 
ATOM     12  H   UNL     1       1.835   2.065   3.518  0.00  0.00    +0.154 HD
ENDROOT
BRANCH  11  13
ATOM     13  C   UNL     1       2.915   2.321   5.258  0.00  0.00    +0.068 A 
ATOM     14  C   UNL     1       4.016   1.835   5.949  0.00  0.00    +0.027 A 
ATOM     15  C   UNL     1       4.514   2.532   7.032  0.00  0.00    +0.022 A 
ATOM     16  C   UNL     1       3.918   3.716   7.429  0.00  0.00    +0.044 A 
ATOM     17  C   UNL     1       2.820   4.205   6.744  0.00  0.00    +0.060 A 
ATOM     18  C   UNL     1       2.320   3.514   5.655  0.00  0.00    +0.146 A 
ATOM     19  F   UNL     1       1.251   3.994   4.982  0.00  0.00    -0.203 F 
ATOM     20 CL   UNL     1       4.548   4.589   8.791  0.00  0.00    -0.083 Cl
ENDBRANCH  11  13
BRANCH   1  22
ATOM     21  C   UNL     1       0.258   1.486  -0.141  0.00  0.00    +0.277 C 
ATOM     22  O   UNL     1       0.578   0.105  -0.320  0.00  0.00    -0.491 OA
ENDBRANCH   1  22
BRANCH   6  23
ATOM     23  O   UNL     1       1.252  -2.547  -0.550  0.00  0.00    -0.488 OA
BRANCH  23  24
ATOM     24  C   UNL     1       1.632  -3.924  -0.611  0.00  0.00    +0.227 C 
BRANCH  24  25
ATOM     25  C   UNL     1       1.138  -4.531  -1.925  0.00  0.00    +0.022 C 
BRANCH  25  26
ATOM     26  C   UNL     1       1.544  -6.005  -1.991  0.00  0.00    -0.075 C 
BRANCH  26  27
ATOM     27  N   UNL     1       1.070  -6.588  -3.253  0.00  0.00    +0.383 N 
ATOM     28  C   UNL     1      -0.400  -6.590  -3.270  0.00  0.00    -0.050 C 
ATOM     29  C   UNL     1      -0.891  -7.198  -4.586  0.00  0.00    +0.141 C 
ATOM     30  O   UNL     1      -0.362  -8.520  -4.722  0.00  0.00    -0.383 OA
ATOM     31  C   UNL     1       1.066  -8.573  -4.686  0.00  0.00    +0.141 C 
ATOM     32  C   UNL     1       1.562  -7.968  -3.371  0.00  0.00    -0.050 C 
ATOM     33  H   UNL     1       1.415  -6.040  -4.027  0.00  0.00    -0.082 HD
ENDBRANCH  26  27
ENDBRANCH  25  26
ENDBRANCH  24  25
ENDBRANCH  23  24
ENDBRANCH   6  23
TORSDOF 7
