REMARK  Name = CHEMBL256116
REMARK  9 active torsions:
REMARK  status: ('A' for Active; 'I' for Inactive)
REMARK    1  A    between atoms: C_1  and  C_2
REMARK    2  A    between atoms: C_6  and  O_12
REMARK    3  A    between atoms: O_12  and  C_13
REMARK    4  A    between atoms: C_15  and  C_28
REMARK    5  A    between atoms: C_16  and  O_22
REMARK    6  A    between atoms: O_22  and  C_23
REMARK    7  A    between atoms: C_23  and  C_24
REMARK    8  A    between atoms: C_24  and  C_26
REMARK    9  A    between atoms: C_24  and  O_27
REMARK                            x       y       z     vdW  Elec       q    Type
REMARK                         _______ _______ _______ _____ _____    ______ ____
ROOT
ATOM      1  C   UNL     1       0.197  -6.860  -0.312  0.00  0.00    +0.248 A 
ATOM      2  C   UNL     1       0.329  -8.149  -0.872  0.00  0.00    +0.134 A 
ATOM      3  C   UNL     1       0.367  -8.630  -2.168  0.00  0.00    +0.023 A 
ATOM      4  C   UNL     1       0.515 -10.018  -2.084  0.00  0.00    +0.144 A 
ATOM      5  C   UNL     1       0.564 -10.355  -0.765  0.00  0.00    +0.159 A 
ATOM      6  N   UNL     1       0.451  -9.230  -0.019  0.00  0.00    -0.229 N 
ATOM      7  N   UNL     1       0.439  -8.992   1.362  0.00  0.00    -0.155 NA
ATOM      8  C   UNL     1       0.314  -7.774   1.813  0.00  0.00    +0.247 A 
ATOM      9  N   UNL     1       0.201  -6.724   1.002  0.00  0.00    -0.198 NA
ATOM     10  C   UNL     1       0.268  -7.813  -3.431  0.00  0.00    +0.050 C 
ENDROOT
BRANCH   1  11
ATOM     11  O   UNL     1       0.075  -5.776  -1.113  0.00  0.00    -0.432 OA
BRANCH  11  17
ATOM     12  C   UNL     1       2.165   0.552   2.023  0.00  0.00    +0.063 C 
ATOM     13  C   UNL     1       1.530  -0.667   1.405  0.00  0.00    +0.015 A 
ATOM     14  C   UNL     1       2.199  -1.731   0.938  0.00  0.00    +0.035 A 
ATOM     15  C   UNL     1       1.200  -2.673   0.431  0.00  0.00    +0.058 A 
ATOM     16  C   UNL     1       1.264  -3.937  -0.167  0.00  0.00    +0.178 A 
ATOM     17  C   UNL     1       0.070  -4.548  -0.528  0.00  0.00    +0.184 A 
ATOM     18  C   UNL     1      -1.131  -3.890  -0.285  0.00  0.00    +0.162 A 
ATOM     19  N   UNL     1      -1.162  -2.701   0.279  0.00  0.00    -0.234 NA
ATOM     20  C   UNL     1      -0.053  -2.071   0.644  0.00  0.00    +0.141 A 
ATOM     21  N   UNL     1       0.183  -0.855   1.243  0.00  0.00    -0.343 N 
ATOM     22  H   UNL     1      -0.503  -0.224   1.510  0.00  0.00    +0.167 HD
ATOM     23  F   UNL     1       2.450  -4.543  -0.387  0.00  0.00    -0.201 F 
ENDBRANCH  11  17
ENDBRANCH   1  11
BRANCH   4  24
ATOM     24  O   UNL     1       0.597 -10.880  -3.135  0.00  0.00    -0.488 OA
BRANCH  24  25
ATOM     25  C   UNL     1       0.747 -12.267  -2.826  0.00  0.00    +0.260 C 
BRANCH  25  26
ATOM     26  C   UNL     1       0.820 -13.073  -4.124  0.00  0.00    +0.149 C 
ATOM     27  C   UNL     1       1.105 -14.541  -3.797  0.00  0.00    +0.041 C 
BRANCH  26  28
ATOM     28  O   UNL     1      -0.425 -12.973  -4.818  0.00  0.00    -0.389 OA
ATOM     29  H   UNL     1      -1.183 -13.306  -4.317  0.00  0.00    +0.210 HD
ENDBRANCH  26  28
ENDBRANCH  25  26
ENDBRANCH  24  25
ENDBRANCH   4  24
TORSDOF 6
