REMARK  Name = CHEMBL200764
REMARK  11 active torsions:
REMARK  status: ('A' for Active; 'I' for Inactive)
REMARK    1  A    between atoms: C_1  and  O_2
REMARK    2  A    between atoms: O_2  and  C_3
REMARK    3  A    between atoms: C_8  and  O_9
REMARK    4  A    between atoms: O_9  and  C_10
REMARK    5  A    between atoms: C_10  and  C_11
REMARK    6  A    between atoms: C_11  and  C_12
REMARK    7  A    between atoms: C_12  and  N_13
REMARK    8  A    between atoms: C_21  and  N_22
REMARK    9  A    between atoms: C_26  and  O_30
REMARK   10  A    between atoms: O_30  and  C_31
REMARK   11  A    between atoms: C_31  and  C_32
REMARK                            x       y       z     vdW  Elec       q    Type
REMARK                         _______ _______ _______ _____ _____    ______ ____
ROOT
ATOM      1  C   UNL     1      -1.177  -0.599   0.052  0.00  0.00    +0.162 A 
ATOM      2  C   UNL     1      -2.337   0.126   0.048  0.00  0.00    +0.063 A 
ATOM      3  C   UNL     1      -3.566  -0.540   0.043  0.00  0.00    +0.048 A 
ATOM      4  C   UNL     1      -3.600  -1.960   0.042  0.00  0.00    +0.080 A 
ATOM      5  C   UNL     1      -2.395  -2.678   0.046  0.00  0.00    +0.078 A 
ATOM      6  C   UNL     1      -1.208  -2.002   0.045  0.00  0.00    +0.164 A 
ATOM      7  N   UNL     1      -4.789  -2.574   0.037  0.00  0.00    -0.235 NA
ATOM      8  C   UNL     1      -5.902  -1.877   0.033  0.00  0.00    +0.224 A 
ATOM      9  N   UNL     1      -5.924  -0.556   0.033  0.00  0.00    -0.216 NA
ATOM     10  C   UNL     1      -4.801   0.158   0.038  0.00  0.00    +0.164 A 
ENDROOT
BRANCH  10  11
ATOM     11  N   UNL     1      -4.836   1.518   0.039  0.00  0.00    -0.228 NA
ATOM     12  C   UNL     1      -4.755   2.173  -1.085  0.00  0.00    +0.098 C 
ATOM     13  C   UNL     1      -4.655   3.689  -1.131  0.00  0.00    +0.142 C 
ATOM     14  C   UNL     1      -3.499   4.027  -2.048  0.00  0.00    +0.203 C 
ATOM     15  C   UNL     1      -3.304   3.248  -3.286  0.00  0.00    +0.167 C 
ATOM     16  C   UNL     1      -3.888   2.036  -3.455  0.00  0.00    +0.102 C 
ATOM     17  C   UNL     1      -4.749   1.481  -2.404  0.00  0.00    +0.204 C 
ATOM     18  O   UNL     1      -5.433   0.496  -2.606  0.00  0.00    -0.286 OA
ATOM     19  O   UNL     1      -2.742   4.926  -1.768  0.00  0.00    -0.288 OA
BRANCH  15  20
ATOM     20  O   UNL     1      -2.528   3.754  -4.272  0.00  0.00    -0.482 OA
BRANCH  20  21
ATOM     21  C   UNL     1      -2.374   2.958  -5.449  0.00  0.00    +0.284 C 
BRANCH  21  22
ATOM     22  C   UNL     1      -1.484   3.678  -6.429  0.00  0.00    +0.078 A 
ATOM     23  C   UNL     1      -0.962   4.914  -6.098  0.00  0.00    +0.027 A 
ATOM     24  C   UNL     1      -0.144   5.568  -7.007  0.00  0.00    +0.003 A 
ATOM     25  C   UNL     1       0.119   4.950  -8.220  0.00  0.00    +0.020 A 
ATOM     26  C   UNL     1      -0.438   3.713  -8.482  0.00  0.00    +0.111 A 
ATOM     27  N   UNL     1      -1.207   3.118  -7.591  0.00  0.00    -0.256 NA
ENDBRANCH  21  22
ENDBRANCH  20  21
ENDBRANCH  15  20
ENDBRANCH  10  11
BRANCH   1  29
ATOM     28  C   UNL     1      -0.017   1.476   0.063  0.00  0.00    +0.277 C 
ATOM     29  O   UNL     1       0.018   0.047   0.057  0.00  0.00    -0.491 OA
ENDBRANCH   1  29
BRANCH   6  30
ATOM     30  O   UNL     1      -0.041  -2.698   0.043  0.00  0.00    -0.488 OA
BRANCH  30  31
ATOM     31  C   UNL     1      -0.136  -4.123   0.036  0.00  0.00    +0.227 C 
BRANCH  31  32
ATOM     32  C   UNL     1       1.270  -4.728   0.035  0.00  0.00    +0.022 C 
BRANCH  32  33
ATOM     33  C   UNL     1       1.168  -6.255   0.028  0.00  0.00    -0.076 C 
BRANCH  33  34
ATOM     34  N   UNL     1       2.518  -6.835   0.027  0.00  0.00    +0.380 N 
ATOM     35  C   UNL     1       3.188  -6.577   1.327  0.00  0.00    -0.079 C 
ATOM     36  C   UNL     1       4.281  -7.673   1.386  0.00  0.00    -0.020 C 
ATOM     37  C   UNL     1       3.580  -8.895   0.750  0.00  0.00    -0.020 C 
ATOM     38  C   UNL     1       2.440  -8.307  -0.101  0.00  0.00    -0.079 C 
ATOM     39  H   UNL     1       3.062  -6.449  -0.730  0.00  0.00    -0.082 HD
ENDBRANCH  33  34
ENDBRANCH  32  33
ENDBRANCH  31  32
ENDBRANCH  30  31
ENDBRANCH   6  30
TORSDOF 10
