REMARK  Name = CHEMBL231371
REMARK  6 active torsions:
REMARK  status: ('A' for Active; 'I' for Inactive)
REMARK    1  A    between atoms: C_1  and  N_2
REMARK    2  A    between atoms: N_5  and  C_8
REMARK    3  A    between atoms: C_8  and  C_9
REMARK    4  A    between atoms: C_11  and  N_16
REMARK    5  A    between atoms: C_23  and  O_27
REMARK    6  A    between atoms: O_27  and  C_28
REMARK                            x       y       z     vdW  Elec       q    Type
REMARK                         _______ _______ _______ _____ _____    ______ ____
ROOT
ATOM      1  N   UNL     1      -1.683  -6.114   5.494  0.00  0.00    -0.285 N 
ATOM      2  C   UNL     1      -1.290  -7.019   6.459  0.00  0.00    +0.198 A 
ATOM      3  N   UNL     1      -2.106  -7.548   7.418  0.00  0.00    -0.326 N 
ATOM      4  H   UNL     1      -3.049  -7.357   7.540  0.00  0.00    +0.169 HD
ATOM      5  C   UNL     1      -1.335  -8.409   8.184  0.00  0.00    +0.068 A 
ATOM      6  C   UNL     1      -1.600  -9.218   9.279  0.00  0.00    +0.031 A 
ATOM      7  C   UNL     1      -0.591  -9.978   9.833  0.00  0.00    +0.048 A 
ATOM      8  C   UNL     1       0.694  -9.939   9.299  0.00  0.00    +0.133 A 
ATOM      9  C   UNL     1       0.973  -9.138   8.209  0.00  0.00    +0.076 A 
ATOM     10  C   UNL     1      -0.042  -8.364   7.639  0.00  0.00    +0.094 A 
ATOM     11  N   UNL     1      -0.080  -7.503   6.588  0.00  0.00    -0.214 NA
ATOM     12  H   UNL     1      -2.617  -5.861   5.418  0.00  0.00    +0.155 HD
ENDROOT
BRANCH   1  15
ATOM     13  C   UNL     1      -0.183  -4.578   2.510  0.00  0.00    -0.013 A 
ATOM     14  C   UNL     1      -1.120  -5.123   3.366  0.00  0.00    +0.029 A 
ATOM     15  C   UNL     1      -0.736  -5.562   4.626  0.00  0.00    +0.034 A 
ATOM     16  C   UNL     1       0.591  -5.452   5.022  0.00  0.00    +0.025 A 
ATOM     17  C   UNL     1       1.524  -4.906   4.163  0.00  0.00    +0.022 A 
ATOM     18  C   UNL     1       1.139  -4.474   2.906  0.00  0.00    +0.045 A 
ATOM     19 CL   UNL     1       2.316  -3.794   1.826  0.00  0.00    -0.083 Cl
BRANCH  13  20
ATOM     20  C   UNL     1      -0.599  -4.101   1.142  0.00  0.00    +0.121 C 
BRANCH  20  25
ATOM     21  C   UNL     1      -0.231  -7.885  -3.017  0.00  0.00    -0.096 C 
ATOM     22  N   UNL     1      -0.681  -6.895  -2.029  0.00  0.00    +0.379 N 
ATOM     23  C   UNL     1       0.036  -5.631  -2.241  0.00  0.00    -0.064 C 
ATOM     24  C   UNL     1      -0.446  -4.594  -1.224  0.00  0.00    +0.066 C 
ATOM     25  N   UNL     1      -0.201  -5.095   0.136  0.00  0.00    -0.302 NA
ATOM     26  C   UNL     1      -0.893  -6.373   0.354  0.00  0.00    +0.066 C 
ATOM     27  C   UNL     1      -0.407  -7.395  -0.675  0.00  0.00    -0.064 C 
ATOM     28  H   UNL     1      -1.673  -6.740  -2.136  0.00  0.00    -0.082 HD
ENDBRANCH  20  25
ENDBRANCH  13  20
ENDBRANCH   1  15
BRANCH   8  29
ATOM     29  O   UNL     1       1.680 -10.692   9.854  0.00  0.00    -0.437 OA
BRANCH  29  30
ATOM     30  C   UNL     1       1.678 -12.024   9.608  0.00  0.00    +0.233 A 
ATOM     31  C   UNL     1       2.601 -12.871  10.235  0.00  0.00    +0.080 A 
ATOM     32  C   UNL     1       3.692 -12.690  11.191  0.00  0.00    +0.034 A 
ATOM     33  C   UNL     1       4.218 -13.904  11.415  0.00  0.00    +0.085 A 
ATOM     34  N   UNL     1       3.549 -14.845  10.676  0.00  0.00    -0.346 N 
ATOM     35  H   UNL     1       3.749 -15.794  10.672  0.00  0.00    +0.167 HD
ATOM     36  C   UNL     1       2.558 -14.249   9.946  0.00  0.00    +0.145 A 
ATOM     37  N   UNL     1       1.640 -14.691   9.088  0.00  0.00    -0.218 NA
ATOM     38  C   UNL     1       0.793 -13.857   8.524  0.00  0.00    +0.227 A 
ATOM     39  N   UNL     1       0.796 -12.560   8.771  0.00  0.00    -0.200 NA
ENDBRANCH  29  30
ENDBRANCH   8  29
TORSDOF 5
