REMARK  Name = CHEMBL477611
REMARK  6 active torsions:
REMARK  status: ('A' for Active; 'I' for Inactive)
REMARK    1  A    between atoms: C_1  and  C_2
REMARK    2  A    between atoms: C_6  and  N_12
REMARK    3  A    between atoms: N_12  and  C_13
REMARK    4  A    between atoms: N_20  and  C_21
REMARK    5  A    between atoms: C_25  and  S_27
REMARK    6  A    between atoms: S_27  and  N_30
REMARK                            x       y       z     vdW  Elec       q    Type
REMARK                         _______ _______ _______ _____ _____    ______ ____
ROOT
ATOM      1  N   UNL     1       0.675  -4.078  -3.977  0.00  0.00    -0.288 N 
ATOM      2  C   UNL     1      -0.488  -4.214  -3.096  0.00  0.00    +0.137 C 
ATOM      3  C   UNL     1       0.508  -3.654  -5.286  0.00  0.00    +0.130 A 
ATOM      4  C   UNL     1       0.652  -2.304  -5.617  0.00  0.00    +0.061 A 
ATOM      5  C   UNL     1       0.476  -1.927  -6.934  0.00  0.00    +0.089 A 
ATOM      6  N   UNL     1       0.178  -2.849  -7.838  0.00  0.00    -0.334 N 
ATOM      7  C   UNL     1       0.048  -4.122  -7.496  0.00  0.00    +0.199 A 
ATOM      8  N   UNL     1       0.214  -4.526  -6.245  0.00  0.00    -0.201 NA
ATOM      9  N   UNL     1      -0.264  -5.055  -8.471  0.00  0.00    -0.285 N 
ATOM     10  H   UNL     1      -0.309  -4.787  -9.402  0.00  0.00    +0.155 HD
ATOM     11  H   UNL     1       0.053  -2.587  -8.764  0.00  0.00    +0.168 HD
ENDROOT
BRANCH   1  17
ATOM     12  C   UNL     1       6.514  -5.602  -1.027  0.00  0.00    +0.068 C 
ATOM     13  C   UNL     1       5.860  -5.224  -2.331  0.00  0.00    +0.067 A 
ATOM     14  C   UNL     1       4.479  -4.972  -2.520  0.00  0.00    +0.023 A 
ATOM     15  C   UNL     1       3.371  -4.985  -1.663  0.00  0.00    +0.013 A 
ATOM     16  C   UNL     1       2.132  -4.691  -2.148  0.00  0.00    +0.024 A 
ATOM     17  C   UNL     1       1.954  -4.376  -3.497  0.00  0.00    +0.037 A 
ATOM     18  C   UNL     1       3.033  -4.358  -4.361  0.00  0.00    +0.051 A 
ATOM     19  C   UNL     1       4.305  -4.655  -3.880  0.00  0.00    +0.068 A 
ATOM     20  N   UNL     1       5.546  -4.721  -4.460  0.00  0.00    -0.277 N 
ATOM     21  H   UNL     1       5.748  -4.552  -5.394  0.00  0.00    +0.189 HD
ATOM     22  N   UNL     1       6.472  -5.068  -3.469  0.00  0.00    -0.178 NA
ENDBRANCH   1  17
BRANCH   9  23
ATOM     23  C   UNL     1      -0.515  -6.383  -8.113  0.00  0.00    +0.035 A 
ATOM     24  C   UNL     1      -1.120  -6.674  -6.896  0.00  0.00    +0.023 A 
ATOM     25  C   UNL     1      -1.366  -7.986  -6.546  0.00  0.00    +0.004 A 
ATOM     26  C   UNL     1      -1.011  -9.011  -7.404  0.00  0.00    +0.028 A 
ATOM     27  C   UNL     1      -0.409  -8.725  -8.615  0.00  0.00    +0.107 A 
ATOM     28  C   UNL     1      -0.165  -7.414  -8.975  0.00  0.00    +0.051 A 
BRANCH  27  29
ATOM     29  S   UNL     1       0.042 -10.035  -9.704  0.00  0.00    +0.056 S 
ATOM     30  O   UNL     1       1.084  -9.535 -10.531  0.00  0.00    -0.153 OA
ATOM     31  O   UNL     1       0.199 -11.196  -8.901  0.00  0.00    -0.153 OA
BRANCH  29  32
ATOM     32  N   UNL     1      -1.255 -10.316 -10.695  0.00  0.00    -0.204 NA
ATOM     33  H   UNL     1      -2.063  -9.789 -10.597  0.00  0.00    +0.144 HD
ATOM     34  H   UNL     1      -1.206 -11.008 -11.373  0.00  0.00    +0.144 HD
ENDBRANCH  29  32
ENDBRANCH  27  29
ENDBRANCH   9  23
TORSDOF 4
