REMARK  Name = CHEMBL270745
REMARK  8 active torsions:
REMARK  status: ('A' for Active; 'I' for Inactive)
REMARK    1  A    between atoms: C_1  and  O_2
REMARK    2  A    between atoms: O_2  and  C_3
REMARK    3  A    between atoms: C_6  and  O_15
REMARK    4  A    between atoms: C_12  and  O_13
REMARK    5  A    between atoms: O_13  and  C_14
REMARK    6  A    between atoms: O_15  and  C_16
REMARK    7  A    between atoms: C_20  and  C_26
REMARK    8  A    between atoms: N_28  and  C_29
REMARK                            x       y       z     vdW  Elec       q    Type
REMARK                         _______ _______ _______ _____ _____    ______ ____
ROOT
ATOM      1  C   UNL     1       2.898   2.343   5.166  0.00  0.00    +0.131 A 
ATOM      2  C   UNL     1       3.560   1.699   6.217  0.00  0.00    +0.047 A 
ATOM      3  C   UNL     1       4.120   2.415   7.230  0.00  0.00    +0.014 A 
ATOM      4  C   UNL     1       4.034   3.814   7.223  0.00  0.00    +0.013 A 
ATOM      5  C   UNL     1       4.606   4.593   8.260  0.00  0.00    +0.048 A 
ATOM      6  C   UNL     1       4.478   5.974   8.180  0.00  0.00    +0.033 A 
ATOM      7  C   UNL     1       3.804   6.540   7.101  0.00  0.00    +0.112 A 
ATOM      8  N   UNL     1       3.281   5.807   6.150  0.00  0.00    -0.255 NA
ATOM      9  C   UNL     1       3.365   4.473   6.161  0.00  0.00    +0.075 A 
ATOM     10  C   UNL     1       2.802   3.705   5.127  0.00  0.00    +0.074 A 
ENDROOT
BRANCH   5  11
ATOM     11  C   UNL     1       5.314   3.956   9.391  0.00  0.00    +0.249 C 
ATOM     12  O   UNL     1       5.505   2.755   9.391  0.00  0.00    -0.270 OA
ATOM     13  N   UNL     1       5.749   4.707  10.423  0.00  0.00    -0.281 N 
ATOM     14  H   UNL     1       5.653   5.671  10.395  0.00  0.00    +0.155 HD
BRANCH  13  15
ATOM     15  C   UNL     1       6.339   4.094  11.534  0.00  0.00    +0.034 A 
ATOM     16  C   UNL     1       6.133   4.614  12.805  0.00  0.00    +0.025 A 
ATOM     17  C   UNL     1       6.716   4.007  13.900  0.00  0.00    +0.022 A 
ATOM     18  C   UNL     1       7.505   2.883  13.731  0.00  0.00    +0.041 A 
ATOM     19  C   UNL     1       7.713   2.364  12.465  0.00  0.00    +0.022 A 
ATOM     20  C   UNL     1       7.127   2.963  11.367  0.00  0.00    +0.025 A 
ATOM     21 CL   UNL     1       8.237   2.123  15.110  0.00  0.00    -0.084 Cl
ENDBRANCH  13  15
ENDBRANCH   5  11
BRANCH   1  22
ATOM     22  O   UNL     1       2.349   1.604   4.168  0.00  0.00    -0.455 OA
BRANCH  22  26
ATOM     23  C   UNL     1       0.326  -0.489   1.135  0.00  0.00    +0.162 A 
ATOM     24  C   UNL     1       1.009   0.200   2.095  0.00  0.00    +0.063 A 
ATOM     25  C   UNL     1       0.507   0.249   3.404  0.00  0.00    +0.044 A 
ATOM     26  C   UNL     1       1.187   0.954   4.423  0.00  0.00    +0.139 A 
ATOM     27  C   UNL     1       0.630   0.958   5.690  0.00  0.00    +0.064 A 
ATOM     28  C   UNL     1      -0.561   0.282   5.922  0.00  0.00    +0.086 A 
ATOM     29  N   UNL     1      -1.184  -0.369   4.968  0.00  0.00    -0.360 N 
ATOM     30  C   UNL     1      -0.703  -0.415   3.720  0.00  0.00    +0.054 A 
ATOM     31  C   UNL     1      -1.383  -1.117   2.710  0.00  0.00    +0.075 A 
ATOM     32  C   UNL     1      -0.875  -1.144   1.443  0.00  0.00    +0.163 A 
ATOM     33  H   UNL     1      -2.013  -0.829   5.172  0.00  0.00    +0.165 HD
BRANCH  23  35
ATOM     34  C   UNL     1       2.040   0.150  -0.385  0.00  0.00    +0.277 C 
ATOM     35  O   UNL     1       0.812  -0.537  -0.134  0.00  0.00    -0.491 OA
ENDBRANCH  23  35
BRANCH  32  36
ATOM     36  O   UNL     1      -1.540  -1.819   0.469  0.00  0.00    -0.491 OA
ATOM     37  C   UNL     1      -2.758  -2.466   0.844  0.00  0.00    +0.277 C 
ENDBRANCH  32  36
ENDBRANCH  22  26
ENDBRANCH   1  22
TORSDOF 6
