REMARK  Name = CHEMBL427267
REMARK  6 active torsions:
REMARK  status: ('A' for Active; 'I' for Inactive)
REMARK    1  A    between atoms: C_1  and  C_2
REMARK    2  A    between atoms: C_6  and  N_8
REMARK    3  A    between atoms: N_11  and  C_12
REMARK    4  A    between atoms: C_15  and  C_18
REMARK    5  A    between atoms: C_23  and  N_33
REMARK    6  A    between atoms: C_26  and  C_27
REMARK                            x       y       z     vdW  Elec       q    Type
REMARK                         _______ _______ _______ _____ _____    ______ ____
ROOT
ATOM      1  C   UNL     1      -0.491  -6.263   2.438  0.00  0.00    +0.035 A 
ATOM      2  C   UNL     1       0.047  -7.000   1.391  0.00  0.00    +0.024 A 
ATOM      3  C   UNL     1       0.098  -8.376   1.468  0.00  0.00    +0.010 A 
ATOM      4  C   UNL     1      -0.391  -9.027   2.600  0.00  0.00    -0.017 A 
ATOM      5  C   UNL     1      -0.930  -8.285   3.651  0.00  0.00    +0.010 A 
ATOM      6  C   UNL     1      -0.974  -6.909   3.570  0.00  0.00    +0.024 A 
ENDROOT
BRANCH   4   7
ATOM      7  C   UNL     1      -0.338 -10.506   2.687  0.00  0.00    +0.000 A 
ATOM      8  C   UNL     1      -1.467 -11.225   2.887  0.00  0.00    +0.055 A 
ATOM      9  S   UNL     1      -0.887 -12.911   2.914  0.00  0.00    -0.095 S 
ATOM     10  C   UNL     1       0.841 -12.615   2.658  0.00  0.00    +0.032 A 
ATOM     11  C   UNL     1       0.933 -11.213   2.551  0.00  0.00    +0.035 A 
ATOM     12  C   UNL     1       2.235 -10.692   2.334  0.00  0.00    +0.103 A 
ATOM     13  N   UNL     1       3.280 -11.487   2.235  0.00  0.00    -0.349 N 
ATOM     14  C   UNL     1       3.204 -12.804   2.329  0.00  0.00    +0.093 A 
ATOM     15  C   UNL     1       1.975 -13.417   2.553  0.00  0.00    +0.014 A 
ATOM     16  H   UNL     1       4.151 -11.086   2.086  0.00  0.00    +0.167 HD
BRANCH  15  17
ATOM     17  C   UNL     1       1.873 -14.892   2.660  0.00  0.00    +0.003 A 
ATOM     18  C   UNL     1       2.469 -15.717   1.701  0.00  0.00    +0.011 A 
ATOM     19  C   UNL     1       2.345 -17.088   1.846  0.00  0.00    +0.020 A 
ATOM     20  C   UNL     1       1.641 -17.593   2.924  0.00  0.00    +0.111 A 
ATOM     21  N   UNL     1       1.089 -16.790   3.813  0.00  0.00    -0.263 NA
ATOM     22  C   UNL     1       1.186 -15.480   3.721  0.00  0.00    +0.119 A 
ENDBRANCH  15  17
BRANCH  12  23
ATOM     23  N   UNL     1       2.409  -9.320   2.222  0.00  0.00    -0.344 N 
ATOM     24  H   UNL     1       1.792  -8.716   2.663  0.00  0.00    +0.144 HD
ATOM     25  H   UNL     1       3.149  -8.966   1.704  0.00  0.00    +0.144 HD
ENDBRANCH  12  23
ENDBRANCH   4   7
BRANCH   1  29
ATOM     26  N   UNL     1      -0.688  -2.925   1.069  0.00  0.00    -0.269 N 
ATOM     27  C   UNL     1      -0.738  -4.268   1.165  0.00  0.00    +0.308 C 
ATOM     28  O   UNL     1      -0.958  -4.940   0.176  0.00  0.00    -0.252 OA
ATOM     29  N   UNL     1      -0.542  -4.867   2.357  0.00  0.00    -0.269 N 
ATOM     30  H   UNL     1      -0.444  -2.392   1.842  0.00  0.00    +0.156 HD
ATOM     31  H   UNL     1      -0.437  -4.330   3.158  0.00  0.00    +0.156 HD
BRANCH  26  37
ATOM     32  C   UNL     1       0.071   0.762  -2.093  0.00  0.00    +0.044 C 
ATOM     33  C   UNL     1      -0.637  -0.510  -1.703  0.00  0.00    -0.049 A 
ATOM     34  C   UNL     1      -1.587  -1.058  -2.546  0.00  0.00    +0.003 A 
ATOM     35  C   UNL     1      -2.239  -2.225  -2.191  0.00  0.00    +0.002 A 
ATOM     36  C   UNL     1      -1.943  -2.846  -0.993  0.00  0.00    +0.023 A 
ATOM     37  C   UNL     1      -0.990  -2.298  -0.145  0.00  0.00    +0.035 A 
ATOM     38  C   UNL     1      -0.333  -1.129  -0.507  0.00  0.00    +0.026 A 
ENDBRANCH  26  37
ENDBRANCH   1  29
TORSDOF 5
