REMARK  Name = CHEMBL413621
REMARK  8 active torsions:
REMARK  status: ('A' for Active; 'I' for Inactive)
REMARK    1  A    between atoms: C_1  and  N_2
REMARK    2  A    between atoms: C_3  and  C_5
REMARK    3  A    between atoms: C_7  and  O_11
REMARK    4  A    between atoms: O_11  and  C_12
REMARK    5  A    between atoms: N_22  and  C_23
REMARK    6  A    between atoms: C_27  and  C_29
REMARK    7  A    between atoms: C_29  and  N_30
REMARK    8  A    between atoms: N_33  and  C_36
REMARK                            x       y       z     vdW  Elec       q    Type
REMARK                         _______ _______ _______ _____ _____    ______ ____
ROOT
ATOM      1  C   UNL     1       3.330  -7.138   1.061  0.00  0.00    +0.131 A 
ATOM      2  C   UNL     1       3.689  -6.582   2.285  0.00  0.00    +0.048 A 
ATOM      3  C   UNL     1       3.758  -7.369   3.415  0.00  0.00    +0.031 A 
ATOM      4  C   UNL     1       3.468  -8.723   3.334  0.00  0.00    +0.068 A 
ATOM      5  C   UNL     1       3.106  -9.292   2.103  0.00  0.00    +0.094 A 
ATOM      6  C   UNL     1       3.034  -8.484   0.965  0.00  0.00    +0.076 A 
ATOM      7  N   UNL     1       2.883 -10.614   2.323  0.00  0.00    -0.214 NA
ATOM      8  C   UNL     1       3.082 -10.889   3.588  0.00  0.00    +0.198 A 
ATOM      9  N   UNL     1       3.446  -9.757   4.258  0.00  0.00    -0.326 N 
ATOM     10  H   UNL     1       3.650  -9.688   5.204  0.00  0.00    +0.169 HD
ATOM     11  N   UNL     1       2.945 -12.139   4.158  0.00  0.00    -0.285 N 
ATOM     12  H   UNL     1       3.024 -12.244   5.119  0.00  0.00    +0.155 HD
ENDROOT
BRANCH  11  13
ATOM     13  C   UNL     1       2.691 -13.252   3.351  0.00  0.00    +0.034 A 
ATOM     14  C   UNL     1       2.003 -13.101   2.153  0.00  0.00    +0.025 A 
ATOM     15  C   UNL     1       1.754 -14.202   1.358  0.00  0.00    +0.022 A 
ATOM     16  C   UNL     1       2.188 -15.455   1.753  0.00  0.00    +0.045 A 
ATOM     17  C   UNL     1       2.872 -15.609   2.946  0.00  0.00    -0.013 A 
ATOM     18  C   UNL     1       3.130 -14.510   3.742  0.00  0.00    +0.029 A 
ATOM     19 CL   UNL     1       1.873 -16.837   0.751  0.00  0.00    -0.083 Cl
BRANCH  17  20
ATOM     20  C   UNL     1       3.343 -16.975   3.373  0.00  0.00    +0.121 C 
BRANCH  20  21
ATOM     21  N   UNL     1       2.197 -17.760   3.853  0.00  0.00    -0.302 NA
ATOM     22  C   UNL     1       1.645 -17.184   5.087  0.00  0.00    +0.066 C 
ATOM     23  C   UNL     1       0.420 -17.993   5.520  0.00  0.00    -0.064 C 
ATOM     24  N   UNL     1       0.810 -19.391   5.744  0.00  0.00    +0.379 N 
ATOM     25  C   UNL     1       1.338 -19.960   4.496  0.00  0.00    -0.064 C 
ATOM     26  C   UNL     1       2.570 -19.167   4.055  0.00  0.00    +0.066 C 
ATOM     27  C   UNL     1      -0.362 -20.164   6.177  0.00  0.00    -0.096 C 
ATOM     28  H   UNL     1       1.522 -19.431   6.458  0.00  0.00    -0.082 HD
ENDBRANCH  20  21
ENDBRANCH  17  20
ENDBRANCH  11  13
BRANCH   1  29
ATOM     29  O   UNL     1       3.266  -6.351  -0.046  0.00  0.00    -0.456 OA
BRANCH  29  32
ATOM     30  C   UNL     1       6.385  -7.324  -1.667  0.00  0.00    +0.129 A 
ATOM     31  C   UNL     1       5.360  -7.283  -0.728  0.00  0.00    +0.079 A 
ATOM     32  C   UNL     1       4.286  -6.421  -0.938  0.00  0.00    +0.132 A 
ATOM     33  C   UNL     1       4.285  -5.634  -2.087  0.00  0.00    +0.066 A 
ATOM     34  C   UNL     1       5.341  -5.732  -2.975  0.00  0.00    +0.115 A 
ATOM     35  N   UNL     1       6.344  -6.552  -2.747  0.00  0.00    -0.250 NA
BRANCH  30  38
ATOM     36  C   UNL     1       9.671  -9.177  -2.156  0.00  0.00    +0.128 C 
ATOM     37  N   UNL     1       8.534  -8.276  -2.362  0.00  0.00    -0.313 N 
ATOM     38  C   UNL     1       7.535  -8.235  -1.459  0.00  0.00    +0.262 C 
ATOM     39  O   UNL     1       7.577  -8.945  -0.473  0.00  0.00    -0.269 OA
ATOM     40  H   UNL     1       8.500  -7.710  -3.149  0.00  0.00    +0.149 HD
ENDBRANCH  30  38
ENDBRANCH  29  32
ENDBRANCH   1  29
TORSDOF 6
