REMARK  Name = CHEMBL401040
REMARK  8 active torsions:
REMARK  status: ('A' for Active; 'I' for Inactive)
REMARK    1  A    between atoms: C_1  and  N_2
REMARK    2  A    between atoms: C_3  and  C_15
REMARK    3  A    between atoms: C_4  and  N_7
REMARK    4  A    between atoms: N_7  and  C_8
REMARK    5  A    between atoms: C_8  and  C_9
REMARK    6  A    between atoms: N_17  and  C_18
REMARK    7  A    between atoms: C_21  and  O_24
REMARK    8  A    between atoms: O_24  and  C_25
REMARK                            x       y       z     vdW  Elec       q    Type
REMARK                         _______ _______ _______ _____ _____    ______ ____
ROOT
ATOM      1  C   UNL     1       1.820   1.586  -0.148  0.00  0.00    +0.173 C 
ATOM      2  N   UNL     1       1.014   0.378   0.047  0.00  0.00    -0.261 N 
ATOM      3  C   UNL     1       0.215  -0.202  -0.908  0.00  0.00    +0.144 A 
ATOM      4  C   UNL     1      -0.361  -1.315  -0.301  0.00  0.00    +0.078 A 
ATOM      5  C   UNL     1       0.146  -1.323   1.008  0.00  0.00    +0.158 A 
ATOM      6  N   UNL     1       0.950  -0.301   1.135  0.00  0.00    -0.177 NA
ENDROOT
BRANCH   3   7
ATOM      7  C   UNL     1       0.011   0.256  -2.283  0.00  0.00    +0.268 C 
ATOM      8  O   UNL     1      -0.939   0.968  -2.553  0.00  0.00    -0.268 OA
ATOM      9  N   UNL     1       0.875  -0.110  -3.251  0.00  0.00    -0.280 N 
ATOM     10  H   UNL     1       1.583  -0.743  -3.055  0.00  0.00    +0.155 HD
BRANCH   9  11
ATOM     11  C   UNL     1       0.750   0.424  -4.539  0.00  0.00    +0.034 A 
ATOM     12  C   UNL     1      -0.509   0.629  -5.088  0.00  0.00    +0.027 A 
ATOM     13  C   UNL     1      -0.631   1.156  -6.358  0.00  0.00    +0.048 A 
ATOM     14  C   UNL     1       0.503   1.480  -7.087  0.00  0.00    +0.130 A 
ATOM     15  C   UNL     1       1.762   1.276  -6.540  0.00  0.00    +0.048 A 
ATOM     16  C   UNL     1       1.886   0.754  -5.268  0.00  0.00    +0.027 A 
BRANCH  14  17
ATOM     17  O   UNL     1       0.382   1.998  -8.338  0.00  0.00    -0.406 OA
BRANCH  17  18
ATOM     18  C   UNL     1       1.593   2.309  -9.032  0.00  0.00    +0.575 C 
ATOM     19  F   UNL     1       2.358   1.147  -9.178  0.00  0.00    -0.133 F 
ATOM     20  F   UNL     1       1.286   2.828 -10.294  0.00  0.00    -0.133 F 
ATOM     21  F   UNL     1       2.318   3.256  -8.302  0.00  0.00    -0.133 F 
ENDBRANCH  17  18
ENDBRANCH  14  17
ENDBRANCH   9  11
ENDBRANCH   3   7
BRANCH   4  22
ATOM     22  N   UNL     1      -1.249  -2.225  -0.871  0.00  0.00    -0.337 N 
ATOM     23  H   UNL     1      -1.530  -2.116  -1.793  0.00  0.00    +0.147 HD
BRANCH  22  24
ATOM     24  C   UNL     1      -1.758  -3.347  -0.078  0.00  0.00    +0.137 C 
BRANCH  24  25
ATOM     25  C   UNL     1      -2.694  -4.175  -0.921  0.00  0.00    -0.028 A 
ATOM     26  C   UNL     1      -4.050  -3.891  -0.963  0.00  0.00    +0.025 A 
ATOM     27  C   UNL     1      -4.877  -4.672  -1.748  0.00  0.00    +0.111 A 
ATOM     28  N   UNL     1      -4.390  -5.677  -2.450  0.00  0.00    -0.263 NA
ATOM     29  C   UNL     1      -3.106  -5.975  -2.433  0.00  0.00    +0.111 A 
ATOM     30  C   UNL     1      -2.217  -5.235  -1.677  0.00  0.00    +0.025 A 
ENDBRANCH  24  25
ENDBRANCH  22  24
ENDBRANCH   4  22
TORSDOF 7
