REMARK  Name = CHEMBL272875
REMARK  8 active torsions:
REMARK  status: ('A' for Active; 'I' for Inactive)
REMARK    1  A    between atoms: C_1  and  C_2
REMARK    2  A    between atoms: C_2  and  N_3
REMARK    3  A    between atoms: C_14  and  O_16
REMARK    4  A    between atoms: O_16  and  C_17
REMARK    5  A    between atoms: C_24  and  O_29
REMARK    6  A    between atoms: C_25  and  O_27
REMARK    7  A    between atoms: O_27  and  C_28
REMARK    8  A    between atoms: O_29  and  C_30
REMARK                            x       y       z     vdW  Elec       q    Type
REMARK                         _______ _______ _______ _____ _____    ______ ____
ROOT
ATOM      1  N   UNL     1      -0.571  -2.712   0.015  0.00  0.00    -0.299 N 
ATOM      2  C   UNL     1      -1.605  -1.848   0.010  0.00  0.00    +0.307 C 
ATOM      3  O   UNL     1      -1.399  -0.653   0.095  0.00  0.00    -0.252 OA
ATOM      4  N   UNL     1      -2.868  -2.309  -0.090  0.00  0.00    -0.249 N 
ATOM      5  C   UNL     1      -3.154  -3.754  -0.101  0.00  0.00    +0.156 C 
ATOM      6  C   UNL     1      -4.229  -4.005  -1.168  0.00  0.00    +0.248 C 
ATOM      7  O   UNL     1      -5.386  -3.229  -0.849  0.00  0.00    -0.488 OA
ATOM      8  C   UNL     1      -5.208  -1.911  -0.570  0.00  0.00    +0.145 A 
ATOM      9  C   UNL     1      -3.961  -1.426  -0.180  0.00  0.00    +0.080 A 
ATOM     10  C   UNL     1      -3.793  -0.082   0.111  0.00  0.00    +0.031 A 
ATOM     11  C   UNL     1      -4.866   0.784   0.018  0.00  0.00    +0.048 A 
ATOM     12  C   UNL     1      -6.111   0.307  -0.367  0.00  0.00    +0.132 A 
ATOM     13  C   UNL     1      -6.281  -1.039  -0.668  0.00  0.00    +0.093 A 
ATOM     14  H   UNL     1      -0.738  -3.668   0.022  0.00  0.00    +0.150 HD
ENDROOT
BRANCH   1  16
ATOM     15  C   UNL     1       1.779  -3.387   0.017  0.00  0.00    +0.024 C 
ATOM     16  C   UNL     1       0.804  -2.208   0.010  0.00  0.00    +0.102 C 
ENDBRANCH   1  16
BRANCH  12  17
ATOM     17  O   UNL     1      -7.165   1.161  -0.458  0.00  0.00    -0.455 OA
BRANCH  17  18
ATOM     18  C   UNL     1      -8.101   1.124   0.523  0.00  0.00    +0.139 A 
ATOM     19  C   UNL     1      -8.040   0.178   1.531  0.00  0.00    +0.066 A 
ATOM     20  C   UNL     1      -9.012   0.165   2.523  0.00  0.00    +0.115 A 
ATOM     21  N   UNL     1      -9.999   1.031   2.535  0.00  0.00    -0.255 NA
ATOM     22  C   UNL     1     -10.119   1.972   1.592  0.00  0.00    +0.078 A 
ATOM     23  C   UNL     1      -9.164   2.054   0.550  0.00  0.00    +0.046 A 
ATOM     24  C   UNL     1      -9.290   3.045  -0.436  0.00  0.00    +0.063 A 
ATOM     25  C   UNL     1     -10.330   3.927  -0.378  0.00  0.00    +0.162 A 
ATOM     26  C   UNL     1     -11.275   3.852   0.656  0.00  0.00    +0.164 A 
ATOM     27  C   UNL     1     -11.182   2.890   1.621  0.00  0.00    +0.077 A 
BRANCH  26  28
ATOM     28  O   UNL     1     -12.302   4.741   0.691  0.00  0.00    -0.491 OA
ATOM     29  C   UNL     1     -13.232   4.614   1.768  0.00  0.00    +0.277 C 
ENDBRANCH  26  28
BRANCH  25  30
ATOM     30  O   UNL     1     -10.451   4.888  -1.333  0.00  0.00    -0.491 OA
ATOM     31  C   UNL     1      -9.457   4.912  -2.359  0.00  0.00    +0.277 C 
ENDBRANCH  25  30
ENDBRANCH  17  18
ENDBRANCH  12  17
TORSDOF 5
