REMARK  Name = CHEMBL243912
REMARK  8 active torsions:
REMARK  status: ('A' for Active; 'I' for Inactive)
REMARK    1  A    between atoms: C_1  and  O_2
REMARK    2  A    between atoms: O_2  and  C_3
REMARK    3  A    between atoms: C_3  and  N_5
REMARK    4  A    between atoms: C_11  and  S_16
REMARK    5  A    between atoms: S_16  and  C_17
REMARK    6  A    between atoms: C_20  and  N_23
REMARK    7  A    between atoms: N_26  and  C_27
REMARK    8  A    between atoms: C_29  and  C_34
REMARK                            x       y       z     vdW  Elec       q    Type
REMARK                         _______ _______ _______ _____ _____    ______ ____
ROOT
ATOM      1  C   UNL     1       4.449  -5.337   7.309  0.00  0.00    +0.013 A 
ATOM      2  C   UNL     1       4.619  -3.959   7.343  0.00  0.00    +0.017 A 
ATOM      3  C   UNL     1       5.254  -3.368   8.416  0.00  0.00    +0.024 A 
ATOM      4  C   UNL     1       5.723  -4.151   9.463  0.00  0.00    +0.035 A 
ATOM      5  C   UNL     1       5.553  -5.528   9.430  0.00  0.00    +0.024 A 
ATOM      6  C   UNL     1       4.913  -6.120   8.359  0.00  0.00    +0.017 A 
ENDROOT
BRANCH   4   7
ATOM      7  N   UNL     1       6.368  -3.550  10.553  0.00  0.00    -0.269 N 
ATOM      8  C   UNL     1       7.382  -4.188  11.171  0.00  0.00    +0.308 C 
ATOM      9  O   UNL     1       7.803  -5.238  10.723  0.00  0.00    -0.252 OA
ATOM     10  N   UNL     1       7.930  -3.662  12.284  0.00  0.00    -0.267 N 
ATOM     11  H   UNL     1       6.085  -2.675  10.862  0.00  0.00    +0.156 HD
ATOM     12  H   UNL     1       7.558  -2.856  12.674  0.00  0.00    +0.156 HD
BRANCH  10  13
ATOM     13  C   UNL     1       9.038  -4.280  12.878  0.00  0.00    +0.071 A 
ATOM     14  C   UNL     1       9.259  -5.638  12.695  0.00  0.00    +0.038 A 
ATOM     15  C   UNL     1      10.353  -6.244  13.282  0.00  0.00    +0.057 A 
ATOM     16  C   UNL     1      11.228  -5.501  14.052  0.00  0.00    +0.015 A 
ATOM     17  C   UNL     1      11.012  -4.148  14.237  0.00  0.00    +0.041 A 
ATOM     18  C   UNL     1       9.923  -3.533  13.648  0.00  0.00    +0.145 A 
ATOM     19  F   UNL     1       9.716  -2.209  13.824  0.00  0.00    -0.204 F 
BRANCH  15  20
ATOM     20  C   UNL     1      10.592  -7.719  13.083  0.00  0.00    +0.417 C 
ATOM     21  F   UNL     1      11.386  -7.913  11.948  0.00  0.00    -0.166 F 
ATOM     22  F   UNL     1      11.245  -8.241  14.204  0.00  0.00    -0.166 F 
ATOM     23  F   UNL     1       9.366  -8.371  12.911  0.00  0.00    -0.166 F 
ENDBRANCH  15  20
ENDBRANCH  10  13
ENDBRANCH   4   7
BRANCH   1  24
ATOM     24  S   UNL     1       3.639  -6.092   5.939  0.00  0.00    -0.089 S 
BRANCH  24  31
ATOM     25  N   UNL     1      10.420  -6.238   2.645  0.00  0.00    -0.109 NA
ATOM     26  C   UNL     1       9.138  -6.311   2.980  0.00  0.00    +0.201 A 
ATOM     27  N   UNL     1       8.619  -5.967   4.190  0.00  0.00    -0.326 N 
ATOM     28  H   UNL     1       9.121  -5.630   4.948  0.00  0.00    +0.169 HD
ATOM     29  C   UNL     1       7.244  -6.182   4.153  0.00  0.00    +0.066 A 
ATOM     30  C   UNL     1       6.235  -6.006   5.087  0.00  0.00    +0.042 A 
ATOM     31  C   UNL     1       4.924  -6.314   4.753  0.00  0.00    +0.015 A 
ATOM     32  C   UNL     1       4.622  -6.799   3.485  0.00  0.00    +0.017 A 
ATOM     33  C   UNL     1       5.625  -6.976   2.553  0.00  0.00    +0.029 A 
ATOM     34  C   UNL     1       6.938  -6.669   2.880  0.00  0.00    +0.065 A 
ATOM     35  N   UNL     1       8.134  -6.735   2.167  0.00  0.00    -0.326 N 
ATOM     36  H   UNL     1       8.233  -7.034   1.250  0.00  0.00    +0.169 HD
BRANCH  25  37
ATOM     37  C   UNL     1      10.799  -6.500   1.390  0.00  0.00    +0.427 C 
ATOM     38  O   UNL     1       9.982  -6.894   0.577  0.00  0.00    -0.224 OA
BRANCH  37  40
ATOM     39  C   UNL     1      12.420  -6.625  -0.334  0.00  0.00    +0.282 C 
ATOM     40  O   UNL     1      12.086  -6.327   1.023  0.00  0.00    -0.452 OA
ENDBRANCH  37  40
ENDBRANCH  25  37
ENDBRANCH  24  31
ENDBRANCH   1  24
TORSDOF 7
