REMARK  Name = CHEMBL425825
REMARK  7 active torsions:
REMARK  status: ('A' for Active; 'I' for Inactive)
REMARK    1  A    between atoms: C_1  and  N_2
REMARK    2  A    between atoms: C_5  and  O_9
REMARK    3  A    between atoms: O_9  and  C_10
REMARK    4  A    between atoms: N_19  and  C_20
REMARK    5  A    between atoms: C_24  and  C_26
REMARK    6  A    between atoms: C_26  and  N_27
REMARK    7  A    between atoms: N_30  and  C_33
REMARK                            x       y       z     vdW  Elec       q    Type
REMARK                         _______ _______ _______ _____ _____    ______ ____
ROOT
ATOM      1  C   UNL     1       5.344  -0.463  -4.518  0.00  0.00    +0.133 A 
ATOM      2  C   UNL     1       5.655  -1.816  -4.433  0.00  0.00    +0.050 A 
ATOM      3  C   UNL     1       5.905  -2.549  -5.575  0.00  0.00    +0.052 A 
ATOM      4  C   UNL     1       5.845  -1.937  -6.817  0.00  0.00    +0.157 A 
ATOM      5  C   UNL     1       5.531  -0.573  -6.910  0.00  0.00    +0.115 A 
ATOM      6  C   UNL     1       5.275   0.159  -5.750  0.00  0.00    +0.078 A 
ATOM      7  N   UNL     1       5.546  -0.260  -8.235  0.00  0.00    -0.195 NA
ATOM      8  C   UNL     1       5.845  -1.335  -8.918  0.00  0.00    +0.293 A 
ATOM      9  O   UNL     1       6.033  -2.374  -8.084  0.00  0.00    -0.424 OA
ATOM     10  N   UNL     1       5.952  -1.395 -10.290  0.00  0.00    -0.269 N 
ATOM     11  H   UNL     1       5.893  -0.583 -10.817  0.00  0.00    +0.157 HD
ENDROOT
BRANCH  10  12
ATOM     12  C   UNL     1       6.145  -2.627 -10.923  0.00  0.00    +0.035 A 
ATOM     13  C   UNL     1       5.701  -3.797 -10.320  0.00  0.00    +0.025 A 
ATOM     14  C   UNL     1       5.893  -5.012 -10.947  0.00  0.00    +0.022 A 
ATOM     15  C   UNL     1       6.527  -5.065 -12.177  0.00  0.00    +0.045 A 
ATOM     16  C   UNL     1       6.970  -3.901 -12.780  0.00  0.00    -0.013 A 
ATOM     17  C   UNL     1       6.775  -2.683 -12.159  0.00  0.00    +0.029 A 
ATOM     18 CL   UNL     1       6.767  -6.594 -12.962  0.00  0.00    -0.083 Cl
BRANCH  16  19
ATOM     19  C   UNL     1       7.660  -3.963 -14.118  0.00  0.00    +0.121 C 
BRANCH  19  20
ATOM     20  N   UNL     1       9.028  -4.470 -13.941  0.00  0.00    -0.302 NA
ATOM     21  C   UNL     1       9.846  -3.520 -13.174  0.00  0.00    +0.066 C 
ATOM     22  C   UNL     1      11.242  -4.110 -12.960  0.00  0.00    -0.064 C 
ATOM     23  N   UNL     1      11.864  -4.379 -14.263  0.00  0.00    +0.379 N 
ATOM     24  C   UNL     1      11.049  -5.348 -15.007  0.00  0.00    -0.064 C 
ATOM     25  C   UNL     1       9.651  -4.768 -15.238  0.00  0.00    +0.066 C 
ATOM     26  C   UNL     1      13.211  -4.929 -14.058  0.00  0.00    -0.096 C 
ATOM     27  H   UNL     1      11.929  -3.520 -14.789  0.00  0.00    -0.082 HD
ENDBRANCH  19  20
ENDBRANCH  16  19
ENDBRANCH  10  12
BRANCH   1  28
ATOM     28  O   UNL     1       5.100   0.248  -3.386  0.00  0.00    -0.438 OA
BRANCH  28  33
ATOM     29  C   UNL     1       5.658   3.063   0.769  0.00  0.00    +0.127 C 
ATOM     30  N   UNL     1       6.975   2.557   0.374  0.00  0.00    -0.332 N 
ATOM     31  C   UNL     1       7.100   1.748  -0.745  0.00  0.00    +0.125 A 
ATOM     32  C   UNL     1       5.981   1.414  -1.504  0.00  0.00    +0.111 A 
ATOM     33  C   UNL     1       6.159   0.601  -2.616  0.00  0.00    +0.225 A 
ATOM     34  N   UNL     1       7.382   0.172  -2.914  0.00  0.00    -0.201 NA
ATOM     35  C   UNL     1       8.417   0.509  -2.172  0.00  0.00    +0.227 A 
ATOM     36  N   UNL     1       8.292   1.283  -1.113  0.00  0.00    -0.221 NA
ATOM     37  H   UNL     1       7.760   2.788   0.895  0.00  0.00    +0.147 HD
ENDBRANCH  28  33
ENDBRANCH   1  28
TORSDOF 5
