REMARK  Name = CHEMBL221484
REMARK  12 active torsions:
REMARK  status: ('A' for Active; 'I' for Inactive)
REMARK    1  A    between atoms: C_1  and  C_2
REMARK    2  A    between atoms: C_5  and  C_21
REMARK    3  A    between atoms: C_7  and  N_8
REMARK    4  A    between atoms: C_10  and  C_15
REMARK    5  A    between atoms: N_23  and  C_24
REMARK    6  A    between atoms: C_26  and  C_34
REMARK    7  A    between atoms: C_28  and  C_30
REMARK    8  A    between atoms: C_34  and  C_35
REMARK    9  A    between atoms: C_35  and  C_36
REMARK   10  A    between atoms: C_36  and  N_37
REMARK   11  A    between atoms: N_37  and  C_38
REMARK   12  A    between atoms: N_37  and  C_39
REMARK                            x       y       z     vdW  Elec       q    Type
REMARK                         _______ _______ _______ _____ _____    ______ ____
ROOT
ATOM      1  C   UNL     1      -1.259   1.019   0.388  0.00  0.00    +0.045 C 
ATOM      2  C   UNL     1      -0.468  -0.257   0.252  0.00  0.00    -0.029 A 
ATOM      3  C   UNL     1      -0.415  -0.907  -0.967  0.00  0.00    +0.006 A 
ATOM      4  C   UNL     1       0.307  -2.076  -1.100  0.00  0.00    +0.013 A 
ATOM      5  C   UNL     1       0.988  -2.605  -0.002  0.00  0.00    +0.039 A 
ATOM      6  C   UNL     1       0.934  -1.949   1.228  0.00  0.00    +0.036 A 
ATOM      7  C   UNL     1       0.211  -0.772   1.350  0.00  0.00    +0.036 A 
ENDROOT
BRANCH   7   8
ATOM      8  N   UNL     1       0.159  -0.108   2.579  0.00  0.00    -0.299 N 
ATOM      9  C   UNL     1       0.069  -0.834   3.757  0.00  0.00    +0.132 A 
ATOM     10  C   UNL     1      -0.060  -0.163   4.982  0.00  0.00    +0.040 A 
ATOM     11  C   UNL     1      -0.149  -0.914   6.155  0.00  0.00    +0.015 A 
ATOM     12  C   UNL     1      -0.106  -2.295   6.058  0.00  0.00    +0.020 A 
ATOM     13  C   UNL     1       0.023  -2.885   4.815  0.00  0.00    +0.113 A 
ATOM     14  N   UNL     1       0.100  -2.157   3.718  0.00  0.00    -0.240 NA
ATOM     15  H   UNL     1       0.185   0.862   2.607  0.00  0.00    +0.154 HD
BRANCH  10  16
ATOM     16  C   UNL     1      -0.101   1.317   5.029  0.00  0.00    +0.077 A 
ATOM     17  C   UNL     1      -0.082   1.990   6.256  0.00  0.00    +0.048 A 
ATOM     18  C   UNL     1      -0.122   3.372   6.245  0.00  0.00    +0.114 A 
ATOM     19  N   UNL     1      -0.176   4.008   5.084  0.00  0.00    -0.244 NA
ATOM     20  C   UNL     1      -0.193   3.345   3.945  0.00  0.00    +0.221 A 
ATOM     21  N   UNL     1      -0.151   2.030   3.905  0.00  0.00    -0.235 NA
ENDBRANCH  10  16
ENDBRANCH   7   8
BRANCH   5  22
ATOM     22  C   UNL     1       1.761  -3.857  -0.141  0.00  0.00    +0.248 C 
ATOM     23  O   UNL     1       2.353  -4.316   0.816  0.00  0.00    -0.270 OA
ATOM     24  N   UNL     1       1.811  -4.489  -1.330  0.00  0.00    -0.281 N 
ATOM     25  H   UNL     1       1.291  -4.157  -2.079  0.00  0.00    +0.155 HD
BRANCH  24  26
ATOM     26  C   UNL     1       2.612  -5.625  -1.485  0.00  0.00    +0.034 A 
ATOM     27  C   UNL     1       3.269  -5.855  -2.688  0.00  0.00    +0.027 A 
ATOM     28  C   UNL     1       4.059  -6.977  -2.837  0.00  0.00    -0.045 A 
ATOM     29  C   UNL     1       4.197  -7.872  -1.792  0.00  0.00    +0.016 A 
ATOM     30  C   UNL     1       3.544  -7.647  -0.594  0.00  0.00    +0.057 A 
ATOM     31  C   UNL     1       2.757  -6.523  -0.436  0.00  0.00    +0.035 A 
BRANCH  30  32
ATOM     32  C   UNL     1       3.697  -8.625   0.542  0.00  0.00    +0.417 C 
ATOM     33  F   UNL     1       4.788  -8.252   1.335  0.00  0.00    -0.166 F 
ATOM     34  F   UNL     1       2.534  -8.623   1.319  0.00  0.00    -0.166 F 
ATOM     35  F   UNL     1       3.912  -9.908   0.027  0.00  0.00    -0.166 F 
ENDBRANCH  30  32
BRANCH  28  36
ATOM     36  C   UNL     1       4.772  -7.227  -4.141  0.00  0.00    +0.033 C 
BRANCH  36  37
ATOM     37  C   UNL     1       6.154  -6.572  -4.101  0.00  0.00    -0.014 C 
BRANCH  37  38
ATOM     38  C   UNL     1       6.878  -6.826  -5.424  0.00  0.00    -0.079 C 
BRANCH  38  39
ATOM     39  N   UNL     1       8.205  -6.197  -5.385  0.00  0.00    +0.376 N 
ATOM     40  C   UNL     1       8.946  -6.541  -6.606  0.00  0.00    -0.097 C 
ATOM     41  C   UNL     1       8.054  -4.739  -5.299  0.00  0.00    -0.097 C 
ATOM     42  H   UNL     1       8.712  -6.531  -4.579  0.00  0.00    -0.083 HD
ENDBRANCH  38  39
ENDBRANCH  37  38
ENDBRANCH  36  37
ENDBRANCH  28  36
ENDBRANCH  24  26
ENDBRANCH   5  22
TORSDOF 9
