REMARK  Name = CHEMBL253969
REMARK  10 active torsions:
REMARK  status: ('A' for Active; 'I' for Inactive)
REMARK    1  A    between atoms: C_5  and  C_8
REMARK    2  A    between atoms: C_8  and  O_9
REMARK    3  A    between atoms: O_9  and  C_10
REMARK    4  A    between atoms: C_11  and  C_28
REMARK    5  A    between atoms: C_12  and  N_15
REMARK    6  A    between atoms: N_18  and  C_19
REMARK    7  A    between atoms: C_19  and  C_20
REMARK    8  A    between atoms: C_20  and  C_21
REMARK    9  A    between atoms: C_21  and  C_22
REMARK   10  A    between atoms: C_22  and  N_23
REMARK                            x       y       z     vdW  Elec       q    Type
REMARK                         _______ _______ _______ _____ _____    ______ ____
ROOT
ATOM      1  C   UNL     1       1.272  -4.017   1.494  0.00  0.00    +0.237 A 
ATOM      2  C   UNL     1       1.286  -4.589   2.771  0.00  0.00    +0.128 A 
ATOM      3  C   UNL     1       1.306  -5.985   2.773  0.00  0.00    +0.109 A 
ATOM      4  S   UNL     1       1.304  -6.364   1.139  0.00  0.00    +0.032 S 
ATOM      5  N   UNL     1       1.273  -4.832   0.473  0.00  0.00    -0.172 NA
ENDROOT
BRANCH   3   6
ATOM      6  N   UNL     1       1.325  -6.846   3.859  0.00  0.00    -0.262 N 
ATOM      7  C   UNL     1       1.343  -8.179   3.661  0.00  0.00    +0.304 C 
ATOM      8  O   UNL     1       1.343  -8.626   2.531  0.00  0.00    -0.252 OA
ATOM      9  N   UNL     1       1.361  -9.016   4.717  0.00  0.00    -0.299 N 
ATOM     10  H   UNL     1       1.325  -6.489   4.761  0.00  0.00    +0.157 HD
ATOM     11  H   UNL     1       1.361  -8.660   5.619  0.00  0.00    +0.150 HD
BRANCH   9  12
ATOM     12  C   UNL     1       1.380 -10.466   4.503  0.00  0.00    +0.105 C 
BRANCH  12  13
ATOM     13  C   UNL     1       1.398 -11.181   5.855  0.00  0.00    +0.017 C 
BRANCH  13  14
ATOM     14  C   UNL     1       1.419 -12.694   5.631  0.00  0.00    -0.017 C 
BRANCH  14  15
ATOM     15  C   UNL     1       1.436 -13.410   6.983  0.00  0.00    -0.079 C 
BRANCH  15  16
ATOM     16  N   UNL     1       1.456 -14.863   6.768  0.00  0.00    +0.380 N 
ATOM     17  C   UNL     1       2.757 -15.277   6.183  0.00  0.00    -0.079 C 
ATOM     18  C   UNL     1       2.844 -16.782   6.541  0.00  0.00    -0.020 C 
ATOM     19  C   UNL     1       2.223 -16.837   7.955  0.00  0.00    -0.020 C 
ATOM     20  C   UNL     1       1.352 -15.572   8.062  0.00  0.00    -0.079 C 
ATOM     21  H   UNL     1       0.698 -15.135   6.161  0.00  0.00    -0.082 HD
ENDBRANCH  15  16
ENDBRANCH  14  15
ENDBRANCH  13  14
ENDBRANCH  12  13
ENDBRANCH   9  12
ENDBRANCH   3   6
BRANCH   2  22
ATOM     22  C   UNL     1       1.282  -3.791   4.001  0.00  0.00    +0.249 C 
ATOM     23  O   UNL     1       0.226  -3.475   4.517  0.00  0.00    -0.270 OA
ATOM     24  N   UNL     1       2.447  -3.408   4.560  0.00  0.00    -0.325 N 
ATOM     25  H   UNL     1       3.288  -3.659   4.148  0.00  0.00    +0.145 HD
ATOM     26  H   UNL     1       2.444  -2.880   5.373  0.00  0.00    +0.145 HD
ENDBRANCH   2  22
BRANCH   1  27
ATOM     27  O   UNL     1       1.251  -2.670   1.323  0.00  0.00    -0.470 OA
BRANCH  27  28
ATOM     28  C   UNL     1       1.232  -2.186  -0.021  0.00  0.00    +0.272 C 
BRANCH  28  33
ATOM     29  C   UNL     1      -0.017   1.380   0.010  0.00  0.00    +0.054 A 
ATOM     30  C   UNL     1       1.171   2.088   0.002  0.00  0.00    +0.023 A 
ATOM     31  C   UNL     1       2.379   1.414  -0.013  0.00  0.00    +0.054 A 
ATOM     32  C   UNL     1       2.399   0.030  -0.021  0.00  0.00    +0.134 A 
ATOM     33  C   UNL     1       1.210  -0.679  -0.013  0.00  0.00    +0.060 A 
ATOM     34  C   UNL     1       0.002  -0.004   0.002  0.00  0.00    +0.134 A 
ATOM     35  F   UNL     1      -1.159  -0.696   0.010  0.00  0.00    -0.205 F 
ATOM     36  F   UNL     1       3.579  -0.629  -0.036  0.00  0.00    -0.205 F 
ATOM     37 BR   UNL     1       1.145   3.979   0.012  0.00  0.00    -0.050 Br
ENDBRANCH  28  33
ENDBRANCH  27  28
ENDBRANCH   1  27
TORSDOF 10
