REMARK  Name = CHEMBL225639
REMARK  8 active torsions:
REMARK  status: ('A' for Active; 'I' for Inactive)
REMARK    1  A    between atoms: C_1  and  N_2
REMARK    2  A    between atoms: N_5  and  C_8
REMARK    3  A    between atoms: C_8  and  C_9
REMARK    4  A    between atoms: C_21  and  C_22
REMARK    5  A    between atoms: C_24  and  C_27
REMARK    6  A    between atoms: C_28  and  C_29
REMARK    7  A    between atoms: C_29  and  C_30
REMARK    8  A    between atoms: C_30  and  O_31
REMARK                            x       y       z     vdW  Elec       q    Type
REMARK                         _______ _______ _______ _____ _____    ______ ____
ROOT
ATOM      1  C   UNL     1      -0.094  -4.478   2.524  0.00  0.00    -0.033 A 
ATOM      2  C   UNL     1       1.262  -4.705   2.678  0.00  0.00    +0.005 A 
ATOM      3  C   UNL     1       1.761  -5.135   3.890  0.00  0.00    +0.010 A 
ATOM      4  C   UNL     1       0.896  -5.340   4.967  0.00  0.00    +0.006 A 
ATOM      5  C   UNL     1      -0.467  -5.109   4.802  0.00  0.00    -0.033 A 
ATOM      6  C   UNL     1      -0.956  -4.675   3.587  0.00  0.00    +0.009 A 
ATOM      7  C   UNL     1      -1.147  -5.412   6.115  0.00  0.00    +0.075 C 
ATOM      8  C   UNL     1      -0.055  -5.841   7.063  0.00  0.00    +0.010 A 
ATOM      9  C   UNL     1       1.158  -5.792   6.357  0.00  0.00    +0.097 A 
ATOM     10  N   UNL     1       2.122  -6.167   7.176  0.00  0.00    -0.173 NA
ATOM     11  H   UNL     1       2.036  -6.764   9.210  0.00  0.00    +0.189 HD
ATOM     12  N   UNL     1       1.556  -6.464   8.422  0.00  0.00    -0.276 N 
ATOM     13  C   UNL     1       0.211  -6.258   8.332  0.00  0.00    +0.070 A 
ENDROOT
BRANCH  13  14
ATOM     14  C   UNL     1      -0.779  -6.450   9.416  0.00  0.00    +0.008 A 
ATOM     15  C   UNL     1      -0.529  -5.975  10.696  0.00  0.00    +0.034 A 
ATOM     16  C   UNL     1      -1.472  -6.175  11.667  0.00  0.00    +0.063 A 
ATOM     17  S   UNL     1      -2.748  -7.051  10.778  0.00  0.00    -0.088 S 
ATOM     18  C   UNL     1      -1.963  -7.096   9.176  0.00  0.00    +0.056 A 
BRANCH  16  19
ATOM     19  C   UNL     1      -1.443  -5.783  13.044  0.00  0.00    -0.059 C 
ATOM     20  C   UNL     1      -1.418  -5.462  14.173  0.00  0.00    -0.094 C 
BRANCH  20  21
ATOM     21  C   UNL     1      -1.388  -5.059  15.588  0.00  0.00    +0.117 C 
BRANCH  21  22
ATOM     22  C   UNL     1      -2.679  -5.509  16.274  0.00  0.00    +0.168 C 
BRANCH  22  23
ATOM     23  O   UNL     1      -2.650  -5.117  17.649  0.00  0.00    -0.394 OA
ATOM     24  H   UNL     1      -3.439  -5.371  18.147  0.00  0.00    +0.209 HD
ENDBRANCH  22  23
ENDBRANCH  21  22
ENDBRANCH  20  21
ENDBRANCH  16  19
ENDBRANCH  13  14
BRANCH   1  25
ATOM     25  C   UNL     1      -0.632  -4.009   1.196  0.00  0.00    +0.119 C 
BRANCH  25  30
ATOM     26  C   UNL     1      -0.018   1.465   0.010  0.00  0.00    -0.096 C 
ATOM     27  N   UNL     1       0.002  -0.004   0.002  0.00  0.00    +0.379 N 
ATOM     28  C   UNL     1      -1.376  -0.512   0.011  0.00  0.00    -0.064 C 
ATOM     29  C   UNL     1      -1.356  -2.042  -0.017  0.00  0.00    +0.066 C 
ATOM     30  N   UNL     1      -0.624  -2.541   1.156  0.00  0.00    -0.302 NA
ATOM     31  C   UNL     1       0.750  -2.020   1.175  0.00  0.00    +0.066 C 
ATOM     32  C   UNL     1       0.713  -0.490   1.192  0.00  0.00    -0.064 C 
ATOM     33  H   UNL     1       0.475  -0.329  -0.828  0.00  0.00    -0.082 HD
ENDBRANCH  25  30
ENDBRANCH   1  25
TORSDOF 7
