REMARK  Name = CHEMBL522601
REMARK  7 active torsions:
REMARK  status: ('A' for Active; 'I' for Inactive)
REMARK    1  A    between atoms: C_5  and  C_7
REMARK    2  A    between atoms: C_11  and  O_17
REMARK    3  A    between atoms: O_17  and  C_18
REMARK    4  A    between atoms: C_18  and  C_19
REMARK    5  A    between atoms: C_19  and  C_20
REMARK    6  A    between atoms: C_20  and  N_21
REMARK    7  A    between atoms: C_24  and  O_27
REMARK                            x       y       z     vdW  Elec       q    Type
REMARK                         _______ _______ _______ _____ _____    ______ ____
ROOT
ATOM      1  C   UNL     1       1.240  -2.164  -0.021  0.00  0.00    +0.048 A 
ATOM      2  C   UNL     1       0.406  -2.964   0.691  0.00  0.00    +0.036 A 
ATOM      3  C   UNL     1       0.776  -4.345   0.387  0.00  0.00    +0.004 A 
ATOM      4  C   UNL     1       0.294  -5.589   0.805  0.00  0.00    +0.055 A 
ATOM      5  C   UNL     1       0.876  -6.743   0.320  0.00  0.00    +0.121 A 
ATOM      6  C   UNL     1       1.937  -6.671  -0.579  0.00  0.00    +0.047 A 
ATOM      7  C   UNL     1       2.420  -5.451  -0.998  0.00  0.00    +0.030 A 
ATOM      8  C   UNL     1       1.849  -4.275  -0.522  0.00  0.00    +0.047 A 
ATOM      9  N   UNL     1       2.105  -2.941  -0.757  0.00  0.00    -0.354 N 
ATOM     10  H   UNL     1       2.794  -2.601  -1.350  0.00  0.00    +0.166 HD
ENDROOT
BRANCH   1  15
ATOM     11  C   UNL     1      -0.017   1.375   0.010  0.00  0.00    +0.001 A 
ATOM     12  C   UNL     1       1.170   2.093   0.002  0.00  0.00    +0.006 A 
ATOM     13  C   UNL     1       2.378   1.435  -0.013  0.00  0.00    -0.018 A 
ATOM     14  C   UNL     1       2.424   0.040  -0.021  0.00  0.00    +0.050 A 
ATOM     15  C   UNL     1       1.218  -0.688  -0.013  0.00  0.00    +0.011 A 
ATOM     16  C   UNL     1       0.002  -0.004   0.002  0.00  0.00    +0.011 A 
ATOM     17  C   UNL     1       3.835  -0.379  -0.038  0.00  0.00    +0.245 C 
ATOM     18  O   UNL     1       4.217  -1.533  -0.049  0.00  0.00    -0.270 OA
ATOM     19  N   UNL     1       4.641   0.697  -0.041  0.00  0.00    -0.307 N 
ATOM     20  C   UNL     1       3.811   1.907  -0.025  0.00  0.00    +0.140 C 
ATOM     21  H   UNL     1       5.611   0.677  -0.050  0.00  0.00    +0.149 HD
ENDBRANCH   1  15
BRANCH   5  22
ATOM     22  O   UNL     1       0.411  -7.956   0.723  0.00  0.00    -0.492 OA
BRANCH  22  23
ATOM     23  C   UNL     1       1.058  -9.110   0.183  0.00  0.00    +0.227 C 
BRANCH  23  24
ATOM     24  C   UNL     1       0.403 -10.373   0.748  0.00  0.00    +0.022 C 
BRANCH  24  25
ATOM     25  C   UNL     1       1.095 -11.609   0.170  0.00  0.00    -0.076 C 
BRANCH  25  26
ATOM     26  N   UNL     1       0.466 -12.820   0.712  0.00  0.00    +0.380 N 
ATOM     27  C   UNL     1       0.692 -12.881   2.161  0.00  0.00    -0.076 C 
ATOM     28  C   UNL     1      -0.030 -14.098   2.743  0.00  0.00    +0.013 C 
ATOM     29  C   UNL     1       0.515 -15.370   2.086  0.00  0.00    +0.111 C 
ATOM     30  C   UNL     1       0.342 -15.264   0.568  0.00  0.00    +0.013 C 
ATOM     31  C   UNL     1       1.050 -14.003   0.067  0.00  0.00    -0.076 C 
ATOM     32  H   UNL     1      -0.526 -12.794   0.528  0.00  0.00    -0.082 HD
BRANCH  29  33
ATOM     33  O   UNL     1      -0.205 -16.505   2.571  0.00  0.00    -0.392 OA
ATOM     34  H   UNL     1       0.088 -17.346   2.196  0.00  0.00    +0.210 HD
ENDBRANCH  29  33
ENDBRANCH  25  26
ENDBRANCH  24  25
ENDBRANCH  23  24
ENDBRANCH  22  23
ENDBRANCH   5  22
TORSDOF 7
