REMARK  Name = CHEMBL272170
REMARK  4 active torsions:
REMARK  status: ('A' for Active; 'I' for Inactive)
REMARK    1  A    between atoms: C_1  and  C_2
REMARK    2  A    between atoms: C_5  and  N_8
REMARK    3  A    between atoms: C_19  and  O_21
REMARK    4  A    between atoms: O_21  and  C_22
REMARK                            x       y       z     vdW  Elec       q    Type
REMARK                         _______ _______ _______ _____ _____    ______ ____
ROOT
ATOM      1  N   UNL     1      -0.230  -4.150   2.290  0.00  0.00    -0.269 N 
ATOM      2  C   UNL     1      -0.168  -4.829   1.127  0.00  0.00    +0.311 C 
ATOM      3  O   UNL     1      -0.149  -4.226   0.071  0.00  0.00    -0.252 OA
ATOM      4  N   UNL     1      -0.127  -6.176   1.135  0.00  0.00    -0.249 N 
ATOM      5  C   UNL     1      -0.093  -6.931   2.399  0.00  0.00    +0.156 C 
ATOM      6  C   UNL     1       0.919  -8.073   2.229  0.00  0.00    +0.248 C 
ATOM      7  O   UNL     1       0.514  -8.887   1.126  0.00  0.00    -0.488 OA
ATOM      8  C   UNL     1       0.210  -8.265  -0.043  0.00  0.00    +0.145 A 
ATOM      9  C   UNL     1      -0.122  -6.911  -0.066  0.00  0.00    +0.080 A 
ATOM     10  C   UNL     1      -0.440  -6.289  -1.262  0.00  0.00    +0.031 A 
ATOM     11  C   UNL     1      -0.431  -7.012  -2.440  0.00  0.00    +0.048 A 
ATOM     12  C   UNL     1      -0.104  -8.360  -2.424  0.00  0.00    +0.134 A 
ATOM     13  C   UNL     1       0.225  -8.986  -1.227  0.00  0.00    +0.093 A 
ATOM     14  H   UNL     1      -0.138  -4.622   3.132  0.00  0.00    +0.156 HD
ENDROOT
BRANCH   1  19
ATOM     15  C   UNL     1      -1.030   1.466   2.257  0.00  0.00    +0.044 C 
ATOM     16  C   UNL     1      -0.818  -0.026   2.266  0.00  0.00    -0.050 A 
ATOM     17  C   UNL     1      -1.179  -0.767   3.376  0.00  0.00    +0.005 A 
ATOM     18  C   UNL     1      -0.986  -2.135   3.387  0.00  0.00    +0.023 A 
ATOM     19  C   UNL     1      -0.428  -2.765   2.282  0.00  0.00    +0.035 A 
ATOM     20  C   UNL     1      -0.066  -2.017   1.169  0.00  0.00    +0.023 A 
ATOM     21  C   UNL     1      -0.267  -0.650   1.162  0.00  0.00    +0.005 A 
ENDBRANCH   1  19
BRANCH  12  22
ATOM     22  O   UNL     1      -0.095  -9.069  -3.584  0.00  0.00    -0.437 OA
BRANCH  22  23
ATOM     23  C   UNL     1      -1.078  -9.980  -3.780  0.00  0.00    +0.233 A 
ATOM     24  C   UNL     1      -1.069 -10.815  -4.905  0.00  0.00    +0.080 A 
ATOM     25  C   UNL     1      -0.187 -10.992  -6.057  0.00  0.00    +0.034 A 
ATOM     26  C   UNL     1      -0.720 -11.970  -6.808  0.00  0.00    +0.085 A 
ATOM     27  N   UNL     1      -1.872 -12.429  -6.224  0.00  0.00    -0.346 N 
ATOM     28  H   UNL     1      -2.434 -13.134  -6.582  0.00  0.00    +0.167 HD
ATOM     29  C   UNL     1      -2.113 -11.746  -5.064  0.00  0.00    +0.145 A 
ATOM     30  N   UNL     1      -3.068 -11.795  -4.137  0.00  0.00    -0.218 NA
ATOM     31  C   UNL     1      -3.036 -10.990  -3.097  0.00  0.00    +0.227 A 
ATOM     32  N   UNL     1      -2.071 -10.107  -2.908  0.00  0.00    -0.200 NA
ENDBRANCH  22  23
ENDBRANCH  12  22
TORSDOF 3
