REMARK  Name = CHEMBL224027
REMARK  7 active torsions:
REMARK  status: ('A' for Active; 'I' for Inactive)
REMARK    1  A    between atoms: C_4  and  O_7
REMARK    2  A    between atoms: O_7  and  C_8
REMARK    3  A    between atoms: C_8  and  C_9
REMARK    4  A    between atoms: C_10  and  C_11
REMARK    5  A    between atoms: C_13  and  C_16
REMARK    6  A    between atoms: C_25  and  C_29
REMARK    7  A    between atoms: C_29  and  N_30
REMARK                            x       y       z     vdW  Elec       q    Type
REMARK                         _______ _______ _______ _____ _____    ______ ____
ROOT
ATOM      1  C   UNL     1      11.008  -2.937  -0.114  0.00  0.00    +0.097 A 
ATOM      2  C   UNL     1      12.175  -3.393   0.520  0.00  0.00    +0.010 A 
ATOM      3  C   UNL     1      13.166  -2.489   0.283  0.00  0.00    +0.070 A 
ATOM      4  N   UNL     1      12.630  -1.490  -0.481  0.00  0.00    -0.276 N 
ATOM      5  H   UNL     1      13.100  -0.707  -0.806  0.00  0.00    +0.189 HD
ATOM      6  N   UNL     1      11.286  -1.800  -0.717  0.00  0.00    -0.173 NA
ATOM      7  C   UNL     1      14.420  -2.928   0.934  0.00  0.00    +0.004 A 
ATOM      8  C   UNL     1      15.691  -2.349   0.979  0.00  0.00    +0.010 A 
ATOM      9  C   UNL     1      16.708  -2.975   1.669  0.00  0.00    +0.005 A 
ATOM     10  C   UNL     1      16.476  -4.175   2.317  0.00  0.00    -0.033 A 
ATOM     11  C   UNL     1      15.220  -4.755   2.277  0.00  0.00    +0.009 A 
ATOM     12  C   UNL     1      14.198  -4.138   1.591  0.00  0.00    -0.033 A 
ATOM     13  C   UNL     1      12.752  -4.504   1.364  0.00  0.00    +0.075 C 
ENDROOT
BRANCH   1  16
ATOM     14  C   UNL     1       7.322  -3.563  -0.091  0.00  0.00    +0.063 A 
ATOM     15  C   UNL     1       8.514  -2.890  -0.093  0.00  0.00    +0.034 A 
ATOM     16  C   UNL     1       9.691  -3.622  -0.110  0.00  0.00    +0.011 A 
ATOM     17  C   UNL     1       9.615  -4.989  -0.123  0.00  0.00    +0.056 A 
ATOM     18  S   UNL     1       7.852  -5.268  -0.105  0.00  0.00    -0.088 S 
BRANCH  14  20
ATOM     19  C   UNL     1       4.900  -2.603  -0.061  0.00  0.00    -0.056 C 
ATOM     20  C   UNL     1       5.991  -3.035  -0.074  0.00  0.00    -0.056 C 
BRANCH  19  21
ATOM     21  C   UNL     1       3.531  -2.060  -0.044  0.00  0.00    +0.318 C 
BRANCH  21  22
ATOM     22  O   UNL     1       3.586  -0.632  -0.037  0.00  0.00    -0.480 OA
BRANCH  22  26
ATOM     23  C   UNL     1      -0.017   1.378   0.010  0.00  0.00    +0.000 A 
ATOM     24  C   UNL     1       1.170   2.088   0.002  0.00  0.00    +0.004 A 
ATOM     25  C   UNL     1       2.377   1.417  -0.013  0.00  0.00    +0.046 A 
ATOM     26  C   UNL     1       2.399   0.030  -0.021  0.00  0.00    +0.122 A 
ATOM     27  C   UNL     1       1.207  -0.680  -0.013  0.00  0.00    +0.046 A 
ATOM     28  C   UNL     1       0.002  -0.004   0.002  0.00  0.00    +0.004 A 
ENDBRANCH  22  26
ENDBRANCH  21  22
ENDBRANCH  19  21
ENDBRANCH  14  20
ENDBRANCH   1  16
BRANCH  10  29
ATOM     29  C   UNL     1      17.594  -4.853   3.067  0.00  0.00    +0.120 C 
BRANCH  29  30
ATOM     30  N   UNL     1      17.603  -4.384   4.460  0.00  0.00    -0.288 NA
ATOM     31  C   UNL     1      18.907  -4.621   5.084  0.00  0.00    +0.096 C 
ATOM     32  C   UNL     1      18.783  -4.625   6.636  0.00  0.00    +0.086 C 
ATOM     33  S   UNL     1      17.162  -5.503   6.779  0.00  0.00    -0.144 S 
ATOM     34  C   UNL     1      16.430  -4.898   5.199  0.00  0.00    +0.154 C 
ENDBRANCH  29  30
ENDBRANCH  10  29
TORSDOF 7
