REMARK  Name = CHEMBL82069
REMARK  6 active torsions:
REMARK  status: ('A' for Active; 'I' for Inactive)
REMARK    1  A    between atoms: C_4  and  N_7
REMARK    2  A    between atoms: C_14  and  C_16
REMARK    3  A    between atoms: C_19  and  O_22
REMARK    4  A    between atoms: O_22  and  C_23
REMARK    5  A    between atoms: C_23  and  C_24
REMARK    6  A    between atoms: C_24  and  N_25
REMARK                            x       y       z     vdW  Elec       q    Type
REMARK                         _______ _______ _______ _____ _____    ______ ____
ROOT
ATOM      1  C   UNL     1       6.217  -4.803   2.561  0.00  0.00    +0.001 A 
ATOM      2  C   UNL     1       5.548  -5.374   3.650  0.00  0.00    +0.015 A 
ATOM      3  C   UNL     1       6.185  -6.371   4.363  0.00  0.00    +0.068 A 
ATOM      4  C   UNL     1       7.460  -6.772   3.978  0.00  0.00    +0.215 A 
ATOM      5  N   UNL     1       8.065  -6.213   2.944  0.00  0.00    -0.221 NA
ATOM      6  C   UNL     1       7.489  -5.263   2.234  0.00  0.00    +0.123 A 
ENDROOT
BRANCH   1  14
ATOM      7  N   UNL     1       4.027  -0.734  -0.618  0.00  0.00    -0.299 N 
ATOM      8  C   UNL     1       5.084  -0.600  -1.467  0.00  0.00    +0.205 A 
ATOM      9  N   UNL     1       6.026  -1.439  -1.144  0.00  0.00    -0.235 NA
ATOM     10  C   UNL     1       5.638  -2.168  -0.066  0.00  0.00    +0.090 A 
ATOM     11  C   UNL     1       4.353  -1.723   0.292  0.00  0.00    +0.073 A 
ATOM     12  C   UNL     1       3.696  -2.288   1.377  0.00  0.00    +0.029 A 
ATOM     13  C   UNL     1       4.298  -3.278   2.103  0.00  0.00    +0.011 A 
ATOM     14  C   UNL     1       5.576  -3.729   1.763  0.00  0.00    -0.014 A 
ATOM     15  C   UNL     1       6.245  -3.182   0.676  0.00  0.00    +0.038 A 
BRANCH   7  19
ATOM     16  C   UNL     1       0.477   1.447  -0.731  0.00  0.00    +0.000 A 
ATOM     17  C   UNL     1       1.693   2.105  -0.772  0.00  0.00    +0.002 A 
ATOM     18  C   UNL     1       2.871   1.385  -0.735  0.00  0.00    +0.026 A 
ATOM     19  C   UNL     1       2.834  -0.000  -0.655  0.00  0.00    +0.048 A 
ATOM     20  C   UNL     1       1.612  -0.658  -0.614  0.00  0.00    +0.026 A 
ATOM     21  C   UNL     1       0.437   0.067  -0.652  0.00  0.00    +0.002 A 
ENDBRANCH   7  19
ENDBRANCH   1  14
BRANCH   4  22
ATOM     22  O   UNL     1       8.091  -7.751   4.674  0.00  0.00    -0.478 OA
BRANCH  22  23
ATOM     23  C   UNL     1       9.399  -8.120   4.232  0.00  0.00    +0.212 C 
BRANCH  23  24
ATOM     24  C   UNL     1       9.947  -9.230   5.132  0.00  0.00    -0.037 C 
BRANCH  24  25
ATOM     25  N   UNL     1       9.108 -10.428   4.998  0.00  0.00    +0.382 N 
ATOM     26  C   UNL     1       9.539 -11.437   5.973  0.00  0.00    -0.079 C 
ATOM     27  C   UNL     1       8.617 -12.656   5.893  0.00  0.00    -0.019 C 
ATOM     28  C   UNL     1       8.684 -13.247   4.482  0.00  0.00    -0.004 C 
ATOM     29  C   UNL     1       8.305 -12.165   3.467  0.00  0.00    -0.019 C 
ATOM     30  C   UNL     1       9.238 -10.964   3.638  0.00  0.00    -0.079 C 
ATOM     31  H   UNL     1       8.145 -10.185   5.172  0.00  0.00    -0.082 HD
ENDBRANCH  24  25
ENDBRANCH  23  24
ENDBRANCH  22  23
ENDBRANCH   4  22
TORSDOF 6
