REMARK  Name = CHEMBL272250
REMARK  7 active torsions:
REMARK  status: ('A' for Active; 'I' for Inactive)
REMARK    1  A    between atoms: C_1  and  O_2
REMARK    2  A    between atoms: O_2  and  C_3
REMARK    3  A    between atoms: C_8  and  C_9
REMARK    4  A    between atoms: C_12  and  O_16
REMARK    5  A    between atoms: O_16  and  C_17
REMARK    6  A    between atoms: C_26  and  C_27
REMARK    7  A    between atoms: N_29  and  C_30
REMARK                            x       y       z     vdW  Elec       q    Type
REMARK                         _______ _______ _______ _____ _____    ______ ____
ROOT
ATOM      1  O   UNL     1       2.457  -3.821  -4.484  0.00  0.00    -0.455 OA
ENDROOT
BRANCH   1   8
ATOM      2  C   UNL     1      -0.950  -1.547  -1.523  0.00  0.00    +0.134 A 
ATOM      3  C   UNL     1      -1.457  -1.515  -2.789  0.00  0.00    +0.074 A 
ATOM      4  C   UNL     1      -0.732  -2.077  -3.853  0.00  0.00    +0.078 A 
ATOM      5  C   UNL     1       0.528  -2.676  -3.598  0.00  0.00    +0.044 A 
ATOM      6  C   UNL     1       1.038  -2.703  -2.296  0.00  0.00    +0.030 A 
ATOM      7  C   UNL     1       0.305  -2.136  -1.264  0.00  0.00    +0.079 A 
ATOM      8  C   UNL     1       1.249  -3.239  -4.678  0.00  0.00    +0.139 A 
ATOM      9  C   UNL     1       0.682  -3.175  -5.939  0.00  0.00    +0.066 A 
ATOM     10  C   UNL     1      -0.557  -2.572  -6.107  0.00  0.00    +0.115 A 
ATOM     11  N   UNL     1      -1.218  -2.052  -5.099  0.00  0.00    -0.255 NA
BRANCH   7  12
ATOM     12  C   UNL     1       0.838  -2.155   0.112  0.00  0.00    +0.245 C 
ATOM     13  O   UNL     1       0.195  -1.663   1.019  0.00  0.00    -0.270 OA
ATOM     14  N   UNL     1       2.037  -2.717   0.362  0.00  0.00    -0.325 N 
ATOM     15  H   UNL     1       2.550  -3.109  -0.362  0.00  0.00    +0.145 HD
ATOM     16  H   UNL     1       2.387  -2.729   1.267  0.00  0.00    +0.145 HD
ENDBRANCH   7  12
BRANCH   2  18
ATOM     17  C   UNL     1      -2.923  -0.421  -0.829  0.00  0.00    +0.277 C 
ATOM     18  O   UNL     1      -1.659  -1.002  -0.503  0.00  0.00    -0.494 OA
ENDBRANCH   2  18
ENDBRANCH   1   8
BRANCH   1  19
ATOM     19  C   UNL     1       3.051  -4.428  -5.544  0.00  0.00    +0.129 A 
ATOM     20  C   UNL     1       3.657  -3.649  -6.535  0.00  0.00    +0.047 A 
ATOM     21  C   UNL     1       4.260  -4.230  -7.609  0.00  0.00    +0.013 A 
ATOM     22  C   UNL     1       4.275  -5.627  -7.727  0.00  0.00    -0.006 A 
ATOM     23  C   UNL     1       3.662  -6.420  -6.726  0.00  0.00    -0.014 A 
ATOM     24  C   UNL     1       3.052  -5.792  -5.627  0.00  0.00    +0.054 A 
ATOM     25  C   UNL     1       3.679  -7.821  -6.845  0.00  0.00    +0.008 A 
ATOM     26  C   UNL     1       4.280  -8.409  -7.917  0.00  0.00    +0.001 A 
ATOM     27  C   UNL     1       4.886  -7.648  -8.908  0.00  0.00    +0.013 A 
ATOM     28  C   UNL     1       4.894  -6.263  -8.832  0.00  0.00    +0.044 A 
BRANCH  28  29
ATOM     29  C   UNL     1       5.539  -5.462  -9.889  0.00  0.00    +0.245 C 
ATOM     30  O   UNL     1       5.641  -4.257  -9.761  0.00  0.00    -0.270 OA
ATOM     31  N   UNL     1       6.015  -6.065 -10.996  0.00  0.00    -0.308 N 
ATOM     32  H   UNL     1       5.934  -7.026 -11.098  0.00  0.00    +0.149 HD
BRANCH  31  33
ATOM     33  C   UNL     1       6.656  -5.269 -12.046  0.00  0.00    +0.073 C 
ATOM     34  C   UNL     1       6.289  -5.586 -13.496  0.00  0.00    +0.024 C 
ATOM     35  C   UNL     1       7.665  -5.976 -12.953  0.00  0.00    +0.024 C 
ENDBRANCH  31  33
ENDBRANCH  28  29
ENDBRANCH   1  19
TORSDOF 6
