REMARK  Name = CHEMBL202011
REMARK  5 active torsions:
REMARK  status: ('A' for Active; 'I' for Inactive)
REMARK    1  A    between atoms: C_8  and  N_11
REMARK    2  A    between atoms: C_12  and  C_14
REMARK    3  A    between atoms: C_19  and  N_20
REMARK    4  A    between atoms: N_20  and  C_21
REMARK    5  A    between atoms: C_21  and  C_22
REMARK                            x       y       z     vdW  Elec       q    Type
REMARK                         _______ _______ _______ _____ _____    ______ ____
ROOT
ATOM      1  C   UNL     1       3.974  -6.122  -0.254  0.00  0.00    +0.058 A 
ATOM      2  C   UNL     1       2.823  -6.908  -0.358  0.00  0.00    +0.015 A 
ATOM      3  C   UNL     1       2.933  -8.274  -0.497  0.00  0.00    +0.001 A 
ATOM      4  C   UNL     1       4.182  -8.876  -0.534  0.00  0.00    +0.002 A 
ATOM      5  C   UNL     1       5.327  -8.114  -0.433  0.00  0.00    +0.024 A 
ATOM      6  C   UNL     1       5.237  -6.734  -0.298  0.00  0.00    +0.040 A 
ENDROOT
BRANCH   1   8
ATOM      7  N   UNL     1       2.652  -4.088   0.048  0.00  0.00    -0.280 N 
ATOM      8  C   UNL     1       3.863  -4.660  -0.106  0.00  0.00    +0.250 C 
ATOM      9  O   UNL     1       4.864  -3.969  -0.123  0.00  0.00    -0.270 OA
ATOM     10  H   UNL     1       1.862  -4.643   0.137  0.00  0.00    +0.155 HD
BRANCH   7  18
ATOM     11  C   UNL     1       3.880   1.696  -1.249  0.00  0.00    +0.001 A 
ATOM     12  C   UNL     1       2.879   2.230  -0.440  0.00  0.00    +0.002 A 
ATOM     13  C   UNL     1       2.057   1.423   0.284  0.00  0.00    +0.028 A 
ATOM     14  C   UNL     1       2.213   0.027   0.220  0.00  0.00    +0.071 A 
ATOM     15  C   UNL     1       3.232  -0.513  -0.604  0.00  0.00    +0.002 A 
ATOM     16  C   UNL     1       4.063   0.350  -1.338  0.00  0.00    +0.010 A 
ATOM     17  C   UNL     1       3.390  -1.909  -0.670  0.00  0.00    +0.035 A 
ATOM     18  C   UNL     1       2.536  -2.695   0.080  0.00  0.00    +0.053 A 
ATOM     19  C   UNL     1       1.553  -2.089   0.871  0.00  0.00    +0.134 A 
ATOM     20  N   UNL     1       1.418  -0.787   0.921  0.00  0.00    -0.253 NA
ENDBRANCH   7  18
ENDBRANCH   1   8
BRANCH   6  21
ATOM     21  N   UNL     1       6.389  -5.965  -0.201  0.00  0.00    -0.339 N 
ATOM     22  H   UNL     1       6.326  -4.997  -0.195  0.00  0.00    +0.146 HD
BRANCH  21  23
ATOM     23  C   UNL     1       7.698  -6.615  -0.108  0.00  0.00    +0.137 C 
BRANCH  23  24
ATOM     24  C   UNL     1       8.775  -5.565  -0.014  0.00  0.00    -0.028 A 
ATOM     25  C   UNL     1       9.369  -5.053  -1.158  0.00  0.00    +0.025 A 
ATOM     26  C   UNL     1      10.353  -4.091  -1.032  0.00  0.00    +0.111 A 
ATOM     27  N   UNL     1      10.728  -3.660   0.157  0.00  0.00    -0.263 NA
ATOM     28  C   UNL     1      10.186  -4.125   1.265  0.00  0.00    +0.111 A 
ATOM     29  C   UNL     1       9.191  -5.083   1.218  0.00  0.00    +0.025 A 
ENDBRANCH  23  24
ENDBRANCH  21  23
ENDBRANCH   6  21
TORSDOF 5
