REMARK  Name = CHEMBL245745
REMARK  10 active torsions:
REMARK  status: ('A' for Active; 'I' for Inactive)
REMARK    1  A    between atoms: C_1  and  C_2
REMARK    2  A    between atoms: C_5  and  C_23
REMARK    3  A    between atoms: C_7  and  O_8
REMARK    4  A    between atoms: O_8  and  C_9
REMARK    5  A    between atoms: C_10  and  C_15
REMARK    6  A    between atoms: N_21  and  C_22
REMARK    7  A    between atoms: N_25  and  C_26
REMARK    8  A    between atoms: C_30  and  C_32
REMARK    9  A    between atoms: C_32  and  C_33
REMARK   10  A    between atoms: C_32  and  C_34
REMARK                            x       y       z     vdW  Elec       q    Type
REMARK                         _______ _______ _______ _____ _____    ______ ____
ROOT
ATOM      1  C   UNL     1      -0.073   1.478  -0.035  0.00  0.00    +0.047 C 
ATOM      2  C   UNL     1      -0.008  -0.027  -0.014  0.00  0.00    -0.008 A 
ATOM      3  C   UNL     1      -0.005  -0.733  -1.203  0.00  0.00    +0.008 A 
ATOM      4  C   UNL     1       0.054  -2.111  -1.193  0.00  0.00    +0.013 A 
ATOM      5  C   UNL     1       0.113  -2.797   0.022  0.00  0.00    +0.041 A 
ATOM      6  C   UNL     1       0.110  -2.084   1.221  0.00  0.00    +0.059 A 
ATOM      7  C   UNL     1       0.055  -0.701   1.198  0.00  0.00    +0.134 A 
ENDROOT
BRANCH   5   8
ATOM      8  C   UNL     1       0.176  -4.274   0.037  0.00  0.00    +0.248 C 
ATOM      9  O   UNL     1       0.227  -4.869   1.096  0.00  0.00    -0.270 OA
ATOM     10  N   UNL     1       0.178  -4.961  -1.122  0.00  0.00    -0.281 N 
ATOM     11  H   UNL     1       0.223  -4.486  -1.967  0.00  0.00    +0.155 HD
BRANCH  10  12
ATOM     12  C   UNL     1       0.115  -6.358  -1.108  0.00  0.00    +0.034 A 
ATOM     13  C   UNL     1       0.644  -7.089  -2.164  0.00  0.00    +0.023 A 
ATOM     14  C   UNL     1       0.581  -8.469  -2.146  0.00  0.00    +0.002 A 
ATOM     15  C   UNL     1      -0.009  -9.122  -1.079  0.00  0.00    +0.004 A 
ATOM     16  C   UNL     1      -0.537  -8.397  -0.027  0.00  0.00    -0.043 A 
ATOM     17  C   UNL     1      -0.472  -7.017  -0.036  0.00  0.00    +0.027 A 
BRANCH  16  18
ATOM     18  C   UNL     1      -1.179  -9.113   1.133  0.00  0.00    +0.013 C 
ATOM     19  C   UNL     1      -2.360  -9.945   0.628  0.00  0.00    +0.012 C 
ATOM     20  C   UNL     1      -0.153 -10.033   1.796  0.00  0.00    +0.012 C 
ENDBRANCH  16  18
ENDBRANCH  10  12
ENDBRANCH   5   8
BRANCH   7  21
ATOM     21  O   UNL     1       0.058  -0.002   2.364  0.00  0.00    -0.437 OA
BRANCH  21  22
ATOM     22  C   UNL     1       1.246   0.460   2.826  0.00  0.00    +0.228 A 
ATOM     23  C   UNL     1       1.308   1.089   4.076  0.00  0.00    +0.044 A 
ATOM     24  C   UNL     1       2.541   1.558   4.534  0.00  0.00    +0.015 A 
ATOM     25  C   UNL     1       3.654   1.379   3.727  0.00  0.00    +0.021 A 
ATOM     26  C   UNL     1       3.513   0.749   2.506  0.00  0.00    +0.114 A 
ATOM     27  N   UNL     1       2.337   0.309   2.097  0.00  0.00    -0.220 NA
BRANCH  23  28
ATOM     28  C   UNL     1       0.086   1.256   4.899  0.00  0.00    -0.008 A 
ATOM     29  C   UNL     1      -1.084   1.792   4.347  0.00  0.00    +0.026 A 
ATOM     30  C   UNL     1      -2.200   1.930   5.143  0.00  0.00    +0.085 A 
ATOM     31  N   UNL     1      -2.179   1.565   6.412  0.00  0.00    -0.350 N 
ATOM     32  C   UNL     1      -1.096   1.054   6.976  0.00  0.00    +0.096 A 
ATOM     33  C   UNL     1       0.070   0.876   6.241  0.00  0.00    +0.050 A 
ATOM     34  N   UNL     1      -1.126   0.686   8.316  0.00  0.00    -0.334 N 
ATOM     35  C   UNL     1       0.068   0.119   8.948  0.00  0.00    +0.127 C 
ATOM     36  H   UNL     1      -1.939   0.804   8.833  0.00  0.00    +0.147 HD
ATOM     37  H   UNL     1      -2.981   1.676   6.946  0.00  0.00    +0.166 HD
ENDBRANCH  23  28
ENDBRANCH  21  22
ENDBRANCH   7  21
TORSDOF 6
