REMARK  Name = CHEMBL390353
REMARK  9 active torsions:
REMARK  status: ('A' for Active; 'I' for Inactive)
REMARK    1  A    between atoms: C_1  and  N_2
REMARK    2  A    between atoms: N_5  and  C_8
REMARK    3  A    between atoms: C_8  and  C_9
REMARK    4  A    between atoms: C_9  and  C_10
REMARK    5  A    between atoms: C_22  and  C_23
REMARK    6  A    between atoms: C_25  and  C_28
REMARK    7  A    between atoms: C_29  and  C_30
REMARK    8  A    between atoms: C_30  and  O_31
REMARK    9  A    between atoms: O_31  and  C_32
REMARK                            x       y       z     vdW  Elec       q    Type
REMARK                         _______ _______ _______ _____ _____    ______ ____
ROOT
ATOM      1  C   UNL     1       0.086  -6.101   2.242  0.00  0.00    -0.049 A 
ATOM      2  C   UNL     1      -0.990  -6.845   2.692  0.00  0.00    +0.004 A 
ATOM      3  C   UNL     1      -0.953  -8.222   2.644  0.00  0.00    +0.010 A 
ATOM      4  C   UNL     1       0.176  -8.871   2.138  0.00  0.00    +0.004 A 
ATOM      5  C   UNL     1       1.254  -8.112   1.686  0.00  0.00    -0.034 A 
ATOM      6  C   UNL     1       1.206  -6.736   1.734  0.00  0.00    +0.008 A 
ATOM      7  C   UNL     1       2.306  -9.081   1.206  0.00  0.00    +0.075 C 
ATOM      8  C   UNL     1       1.727 -10.458   1.426  0.00  0.00    +0.010 A 
ATOM      9  C   UNL     1       0.486 -10.308   1.969  0.00  0.00    +0.070 A 
ATOM     10  N   UNL     1      -0.026 -11.561   2.163  0.00  0.00    -0.276 N 
ATOM     11  H   UNL     1      -0.896 -11.769   2.537  0.00  0.00    +0.189 HD
ATOM     12  N   UNL     1       0.927 -12.490   1.728  0.00  0.00    -0.173 NA
ATOM     13  C   UNL     1       1.978 -11.832   1.285  0.00  0.00    +0.097 A 
ENDROOT
BRANCH  13  14
ATOM     14  C   UNL     1       3.215 -12.438   0.732  0.00  0.00    +0.011 A 
ATOM     15  C   UNL     1       3.701 -13.635   1.234  0.00  0.00    +0.034 A 
ATOM     16  C   UNL     1       4.845 -14.159   0.694  0.00  0.00    +0.063 A 
ATOM     17  S   UNL     1       5.259 -12.949  -0.552  0.00  0.00    -0.088 S 
ATOM     18  C   UNL     1       3.895 -11.829  -0.288  0.00  0.00    +0.056 A 
BRANCH  16  19
ATOM     19  C   UNL     1       5.532 -15.366   1.039  0.00  0.00    -0.056 C 
ATOM     20  C   UNL     1       6.096 -16.357   1.323  0.00  0.00    -0.056 C 
BRANCH  20  21
ATOM     21  C   UNL     1       6.802 -17.598   1.678  0.00  0.00    +0.318 C 
BRANCH  21  22
ATOM     22  O   UNL     1       7.956 -17.744   0.847  0.00  0.00    -0.480 OA
BRANCH  22  23
ATOM     23  C   UNL     1       8.725 -18.847   1.047  0.00  0.00    +0.122 A 
ATOM     24  C   UNL     1       8.373 -19.772   2.019  0.00  0.00    +0.046 A 
ATOM     25  C   UNL     1       9.156 -20.892   2.221  0.00  0.00    +0.004 A 
ATOM     26  C   UNL     1      10.290 -21.091   1.454  0.00  0.00    +0.000 A 
ATOM     27  C   UNL     1      10.643 -20.170   0.485  0.00  0.00    +0.004 A 
ATOM     28  C   UNL     1       9.859 -19.052   0.276  0.00  0.00    +0.046 A 
ENDBRANCH  22  23
ENDBRANCH  21  22
ENDBRANCH  20  21
ENDBRANCH  16  19
ENDBRANCH  13  14
BRANCH   1  29
ATOM     29  C   UNL     1       0.036  -4.596   2.298  0.00  0.00    +0.016 C 
BRANCH  29  30
ATOM     30  C   UNL     1      -0.562  -4.056   0.998  0.00  0.00    -0.074 C 
BRANCH  30  35
ATOM     31  C   UNL     1      -0.018   1.465   0.010  0.00  0.00    +0.104 C 
ATOM     32  N   UNL     1       0.002  -0.004   0.002  0.00  0.00    -0.309 NA
ATOM     33  C   UNL     1      -1.361  -0.549  -0.076  0.00  0.00    +0.065 C 
ATOM     34  C   UNL     1      -1.293  -2.076  -0.143  0.00  0.00    -0.063 C 
ATOM     35  N   UNL     1      -0.611  -2.589   1.053  0.00  0.00    +0.382 N 
ATOM     36  C   UNL     1       0.757  -2.055   1.104  0.00  0.00    -0.063 C 
ATOM     37  C   UNL     1       0.707  -0.528   1.181  0.00  0.00    +0.065 C 
ATOM     38  H   UNL     1      -1.115  -2.300   1.878  0.00  0.00    -0.082 HD
ENDBRANCH  30  35
ENDBRANCH  29  30
ENDBRANCH   1  29
TORSDOF 8
