REMARK  Name = CHEMBL214063
REMARK  9 active torsions:
REMARK  status: ('A' for Active; 'I' for Inactive)
REMARK    1  A    between atoms: C_1  and  C_2
REMARK    2  A    between atoms: C_6  and  N_8
REMARK    3  A    between atoms: N_11  and  C_12
REMARK    4  A    between atoms: N_11  and  C_39
REMARK    5  A    between atoms: C_12  and  C_13
REMARK    6  A    between atoms: C_16  and  C_18
REMARK    7  A    between atoms: C_27  and  C_31
REMARK    8  A    between atoms: C_31  and  N_32
REMARK    9  A    between atoms: N_35  and  C_38
REMARK                            x       y       z     vdW  Elec       q    Type
REMARK                         _______ _______ _______ _____ _____    ______ ____
ROOT
ATOM      1  C   UNL     1       5.353  -7.807   2.863  0.00  0.00    +0.103 A 
ATOM      2  C   UNL     1       5.675  -8.548   1.713  0.00  0.00    +0.010 A 
ATOM      3  C   UNL     1       7.028  -8.688   1.665  0.00  0.00    +0.070 A 
ATOM      4  N   UNL     1       7.543  -8.049   2.759  0.00  0.00    -0.276 N 
ATOM      5  H   UNL     1       8.482  -7.981   2.989  0.00  0.00    +0.189 HD
ATOM      6  N   UNL     1       6.476  -7.504   3.484  0.00  0.00    -0.173 NA
ATOM      7  C   UNL     1       7.415  -9.464   0.466  0.00  0.00    +0.004 A 
ATOM      8  C   UNL     1       8.666  -9.863  -0.013  0.00  0.00    +0.010 A 
ATOM      9  C   UNL     1       8.755 -10.596  -1.178  0.00  0.00    +0.005 A 
ATOM     10  C   UNL     1       7.610 -10.938  -1.876  0.00  0.00    -0.033 A 
ATOM     11  C   UNL     1       6.368 -10.547  -1.408  0.00  0.00    +0.009 A 
ATOM     12  C   UNL     1       6.269  -9.815  -0.245  0.00  0.00    -0.033 A 
ATOM     13  C   UNL     1       5.092  -9.249   0.510  0.00  0.00    +0.075 C 
ENDROOT
BRANCH   1  17
ATOM     14  C   UNL     1       1.416  -6.696   3.631  0.00  0.00    +0.008 A 
ATOM     15  C   UNL     1       2.175  -6.938   4.730  0.00  0.00    +0.013 A 
ATOM     16  C   UNL     1       3.492  -7.311   4.567  0.00  0.00    +0.018 A 
ATOM     17  C   UNL     1       3.991  -7.426   3.298  0.00  0.00    +0.040 A 
ATOM     18  S   UNL     1       2.569  -7.005   2.304  0.00  0.00    -0.090 S 
BRANCH  14  19
ATOM     19  C   UNL     1      -0.030  -6.281   3.552  0.00  0.00    +0.152 C 
BRANCH  19  23
ATOM     20  N   UNL     1      -0.076  -2.797   2.381  0.00  0.00    -0.269 N 
ATOM     21  C   UNL     1      -0.096  -4.145   2.381  0.00  0.00    +0.307 C 
ATOM     22  O   UNL     1      -0.092  -4.753   1.328  0.00  0.00    -0.252 OA
ATOM     23  N   UNL     1      -0.119  -4.819   3.548  0.00  0.00    -0.278 N 
ATOM     24  H   UNL     1       0.053  -2.314   3.212  0.00  0.00    +0.156 HD
BRANCH  20  30
ATOM     25  C   UNL     1      -1.663   1.203   0.004  0.00  0.00    +0.044 C 
ATOM     26  C   UNL     1      -1.008  -0.154   0.001  0.00  0.00    -0.049 A 
ATOM     27  C   UNL     1      -0.570  -0.707  -1.189  0.00  0.00    +0.003 A 
ATOM     28  C   UNL     1       0.031  -1.952  -1.196  0.00  0.00    +0.002 A 
ATOM     29  C   UNL     1       0.197  -2.647  -0.014  0.00  0.00    +0.023 A 
ATOM     30  C   UNL     1      -0.242  -2.095   1.182  0.00  0.00    +0.035 A 
ATOM     31  C   UNL     1      -0.841  -0.842   1.187  0.00  0.00    +0.026 A 
ENDBRANCH  20  30
BRANCH  23  32
ATOM     32  C   UNL     1      -0.233  -4.088   4.813  0.00  0.00    +0.078 C 
ATOM     33  C   UNL     1      -0.243  -4.909   6.104  0.00  0.00    +0.024 C 
ATOM     34  C   UNL     1      -1.531  -4.250   5.608  0.00  0.00    +0.024 C 
ENDBRANCH  23  32
ENDBRANCH  19  23
ENDBRANCH  14  19
ENDBRANCH   1  17
BRANCH  10  35
ATOM     35  C   UNL     1       7.717 -11.738  -3.149  0.00  0.00    +0.119 C 
BRANCH  35  36
ATOM     36  N   UNL     1       7.657 -13.171  -2.833  0.00  0.00    -0.302 NA
ATOM     37  C   UNL     1       8.836 -13.591  -2.062  0.00  0.00    +0.066 C 
ATOM     38  C   UNL     1       8.707 -15.072  -1.703  0.00  0.00    -0.064 C 
ATOM     39  N   UNL     1       8.597 -15.867  -2.933  0.00  0.00    +0.379 N 
ATOM     40  C   UNL     1       7.401 -15.454  -3.679  0.00  0.00    -0.064 C 
ATOM     41  C   UNL     1       7.519 -13.975  -4.055  0.00  0.00    +0.066 C 
ATOM     42  C   UNL     1       8.491 -17.291  -2.588  0.00  0.00    -0.096 C 
ATOM     43  H   UNL     1       9.416 -15.720  -3.503  0.00  0.00    -0.082 HD
ENDBRANCH  35  36
ENDBRANCH  10  35
TORSDOF 7
