REMARK  Name = CHEMBL243910
REMARK  8 active torsions:
REMARK  status: ('A' for Active; 'I' for Inactive)
REMARK    1  A    between atoms: C_1  and  O_2
REMARK    2  A    between atoms: O_2  and  C_3
REMARK    3  A    between atoms: C_3  and  N_5
REMARK    4  A    between atoms: C_11  and  O_16
REMARK    5  A    between atoms: O_16  and  C_17
REMARK    6  A    between atoms: C_20  and  N_23
REMARK    7  A    between atoms: N_26  and  C_27
REMARK    8  A    between atoms: C_29  and  C_34
REMARK                            x       y       z     vdW  Elec       q    Type
REMARK                         _______ _______ _______ _____ _____    ______ ____
ROOT
ATOM      1  C   UNL     1      -8.797  -4.712   0.092  0.00  0.00    +0.221 A 
ATOM      2  C   UNL     1     -10.182  -4.632   0.160  0.00  0.00    +0.069 A 
ATOM      3  C   UNL     1     -10.916  -5.788   0.353  0.00  0.00    +0.030 A 
ATOM      4  C   UNL     1     -10.231  -6.996   0.474  0.00  0.00    +0.053 A 
ATOM      5  C   UNL     1      -8.846  -6.998   0.397  0.00  0.00    +0.138 A 
ATOM      6  N   UNL     1      -8.180  -5.876   0.206  0.00  0.00    -0.219 NA
ENDROOT
BRANCH   4   7
ATOM      7  N   UNL     1     -10.932  -8.193   0.672  0.00  0.00    -0.268 N 
ATOM      8  C   UNL     1     -12.137  -8.372   0.094  0.00  0.00    +0.308 C 
ATOM      9  O   UNL     1     -12.570  -7.538  -0.677  0.00  0.00    -0.252 OA
ATOM     10  N   UNL     1     -12.860  -9.475   0.371  0.00  0.00    -0.267 N 
ATOM     11  H   UNL     1     -10.552  -8.893   1.226  0.00  0.00    +0.156 HD
ATOM     12  H   UNL     1     -12.541 -10.112   1.029  0.00  0.00    +0.156 HD
BRANCH  10  13
ATOM     13  C   UNL     1     -14.073  -9.702  -0.292  0.00  0.00    +0.071 A 
ATOM     14  C   UNL     1     -14.796  -8.634  -0.804  0.00  0.00    +0.038 A 
ATOM     15  C   UNL     1     -15.992  -8.860  -1.458  0.00  0.00    +0.057 A 
ATOM     16  C   UNL     1     -16.470 -10.150  -1.603  0.00  0.00    +0.015 A 
ATOM     17  C   UNL     1     -15.753 -11.217  -1.095  0.00  0.00    +0.041 A 
ATOM     18  C   UNL     1     -14.552 -10.998  -0.445  0.00  0.00    +0.145 A 
ATOM     19  F   UNL     1     -13.848 -12.042   0.046  0.00  0.00    -0.204 F 
BRANCH  15  20
ATOM     20  C   UNL     1     -16.777  -7.700  -2.013  0.00  0.00    +0.417 C 
ATOM     21  F   UNL     1     -16.374  -7.451  -3.329  0.00  0.00    -0.166 F 
ATOM     22  F   UNL     1     -18.142  -8.009  -1.994  0.00  0.00    -0.166 F 
ATOM     23  F   UNL     1     -16.546  -6.564  -1.231  0.00  0.00    -0.166 F 
ENDBRANCH  15  20
ENDBRANCH  10  13
ENDBRANCH   4   7
BRANCH   1  24
ATOM     24  O   UNL     1      -8.068  -3.582  -0.098  0.00  0.00    -0.438 OA
BRANCH  24  31
ATOM     25  N   UNL     1      -1.330  -5.054  -2.006  0.00  0.00    -0.109 NA
ATOM     26  C   UNL     1      -2.474  -4.691  -1.438  0.00  0.00    +0.201 A 
ATOM     27  N   UNL     1      -3.709  -4.839  -1.988  0.00  0.00    -0.326 N 
ATOM     28  H   UNL     1      -3.901  -5.226  -2.857  0.00  0.00    +0.169 HD
ATOM     29  C   UNL     1      -4.649  -4.341  -1.092  0.00  0.00    +0.069 A 
ATOM     30  C   UNL     1      -6.032  -4.240  -1.131  0.00  0.00    +0.074 A 
ATOM     31  C   UNL     1      -6.713  -3.683  -0.060  0.00  0.00    +0.132 A 
ATOM     32  C   UNL     1      -6.015  -3.228   1.050  0.00  0.00    +0.048 A 
ATOM     33  C   UNL     1      -4.639  -3.326   1.095  0.00  0.00    +0.031 A 
ATOM     34  C   UNL     1      -3.949  -3.882   0.027  0.00  0.00    +0.066 A 
ATOM     35  N   UNL     1      -2.597  -4.117  -0.212  0.00  0.00    -0.326 N 
ATOM     36  H   UNL     1      -1.868  -3.905   0.393  0.00  0.00    +0.169 HD
BRANCH  25  37
ATOM     37  C   UNL     1      -1.323  -5.514  -3.261  0.00  0.00    +0.427 C 
ATOM     38  O   UNL     1      -2.374  -5.688  -3.851  0.00  0.00    -0.224 OA
BRANCH  37  40
ATOM     39  C   UNL     1      -0.220  -6.275  -5.215  0.00  0.00    +0.282 C 
ATOM     40  O   UNL     1      -0.152  -5.786  -3.874  0.00  0.00    -0.452 OA
ENDBRANCH  37  40
ENDBRANCH  25  37
ENDBRANCH  24  31
ENDBRANCH   1  24
TORSDOF 7
