REMARK  Name = CHEMBL375840
REMARK  6 active torsions:
REMARK  status: ('A' for Active; 'I' for Inactive)
REMARK    1  A    between atoms: C_1  and  C_2
REMARK    2  A    between atoms: C_5  and  C_19
REMARK    3  A    between atoms: C_7  and  C_8
REMARK    4  A    between atoms: C_9  and  C_10
REMARK    5  A    between atoms: N_21  and  C_22
REMARK    6  A    between atoms: C_26  and  C_28
REMARK                            x       y       z     vdW  Elec       q    Type
REMARK                         _______ _______ _______ _____ _____    ______ ____
ROOT
ATOM      1  C   UNL     1      -0.048   1.502   0.010  0.00  0.00    +0.045 C 
ATOM      2  C   UNL     1      -0.020  -0.004   0.002  0.00  0.00    -0.035 A 
ATOM      3  C   UNL     1      -0.018  -0.687  -1.198  0.00  0.00    +0.005 A 
ATOM      4  C   UNL     1       0.008  -2.067  -1.215  0.00  0.00    +0.013 A 
ATOM      5  C   UNL     1       0.033  -2.784  -0.016  0.00  0.00    +0.038 A 
ATOM      6  C   UNL     1       0.032  -2.103   1.199  0.00  0.00    +0.030 A 
ATOM      7  C   UNL     1       0.011  -0.708   1.209  0.00  0.00    +0.029 A 
ENDROOT
BRANCH   5   8
ATOM      8  C   UNL     1       0.060  -4.262  -0.037  0.00  0.00    +0.248 C 
ATOM      9  O   UNL     1       0.082  -4.884   1.007  0.00  0.00    -0.270 OA
ATOM     10  N   UNL     1       0.061  -4.919  -1.214  0.00  0.00    -0.281 N 
ATOM     11  H   UNL     1      -0.024  -4.426  -2.045  0.00  0.00    +0.155 HD
BRANCH  10  12
ATOM     12  C   UNL     1       0.184  -6.312  -1.236  0.00  0.00    +0.034 A 
ATOM     13  C   UNL     1       0.888  -6.932  -2.261  0.00  0.00    +0.023 A 
ATOM     14  C   UNL     1       1.008  -8.307  -2.280  0.00  0.00    +0.002 A 
ATOM     15  C   UNL     1       0.428  -9.068  -1.281  0.00  0.00    +0.012 A 
ATOM     16  C   UNL     1      -0.274  -8.454  -0.260  0.00  0.00    +0.057 A 
ATOM     17  C   UNL     1      -0.392  -7.078  -0.232  0.00  0.00    +0.035 A 
BRANCH  16  18
ATOM     18  C   UNL     1      -0.905  -9.287   0.826  0.00  0.00    +0.417 C 
ATOM     19  F   UNL     1      -0.646 -10.640   0.586  0.00  0.00    -0.166 F 
ATOM     20  F   UNL     1      -0.368  -8.922   2.065  0.00  0.00    -0.166 F 
ATOM     21  F   UNL     1      -2.287  -9.071   0.835  0.00  0.00    -0.166 F 
ENDBRANCH  16  18
ENDBRANCH  10  12
ENDBRANCH   5   8
BRANCH   7  22
ATOM     22  C   UNL     1       0.016   0.001   2.453  0.00  0.00    -0.061 C 
ATOM     23  C   UNL     1       0.019   0.582   3.473  0.00  0.00    -0.059 C 
BRANCH  23  24
ATOM     24  C   UNL     1       0.024   1.291   4.718  0.00  0.00    +0.045 A 
ATOM     25  C   UNL     1      -0.008   2.688   4.736  0.00  0.00    +0.049 A 
ATOM     26  C   UNL     1      -0.002   3.329   5.975  0.00  0.00    +0.109 A 
ATOM     27  C   UNL     1       0.036   2.551   7.148  0.00  0.00    +0.158 A 
ATOM     28  N   UNL     1       0.033   3.450   8.194  0.00  0.00    -0.329 N 
ATOM     29  C   UNL     1      -0.005   4.700   7.658  0.00  0.00    +0.198 A 
ATOM     30  N   UNL     1      -0.025   4.630   6.359  0.00  0.00    -0.234 NA
ATOM     31  N   UNL     1       0.066   1.229   7.082  0.00  0.00    -0.235 NA
ATOM     32  C   UNL     1       0.055   0.593   5.931  0.00  0.00    +0.130 A 
ATOM     33  H   UNL     1       0.054   3.231   9.138  0.00  0.00    +0.168 HD
ENDBRANCH  23  24
ENDBRANCH   7  22
TORSDOF 5
