REMARK  Name = CHEMBL455655
REMARK  7 active torsions:
REMARK  status: ('A' for Active; 'I' for Inactive)
REMARK    1  A    between atoms: C_1  and  C_2
REMARK    2  A    between atoms: C_2  and  N_3
REMARK    3  A    between atoms: C_7  and  C_8
REMARK    4  A    between atoms: C_13  and  O_17
REMARK    5  A    between atoms: O_17  and  C_18
REMARK    6  A    between atoms: C_21  and  N_25
REMARK    7  A    between atoms: N_31  and  C_34
REMARK                            x       y       z     vdW  Elec       q    Type
REMARK                         _______ _______ _______ _____ _____    ______ ____
ROOT
ATOM      1  C   UNL     1       5.790   2.624   4.338  0.00  0.00    +0.164 A 
ATOM      2  C   UNL     1       6.724   1.725   4.829  0.00  0.00    +0.051 A 
ATOM      3  C   UNL     1       7.585   2.106   5.840  0.00  0.00    +0.027 A 
ATOM      4  C   UNL     1       7.515   3.389   6.365  0.00  0.00    +0.038 A 
ATOM      5  C   UNL     1       6.581   4.290   5.874  0.00  0.00    +0.065 A 
ATOM      6  C   UNL     1       5.723   3.910   4.858  0.00  0.00    +0.167 A 
ATOM      7  F   UNL     1       4.816   4.788   4.375  0.00  0.00    -0.202 F 
ENDROOT
BRANCH   4   8
ATOM      8  N   UNL     1       8.388   3.775   7.391  0.00  0.00    -0.269 N 
ATOM      9  C   UNL     1       8.027   4.746   8.253  0.00  0.00    +0.314 C 
ATOM     10  O   UNL     1       7.012   5.385   8.059  0.00  0.00    -0.252 OA
ATOM     11  N   UNL     1       8.793   5.009   9.331  0.00  0.00    -0.208 N 
ATOM     12  C   UNL     1      10.099   4.398   9.618  0.00  0.00    +0.139 C 
ATOM     13  C   UNL     1      10.525   5.045  10.950  0.00  0.00    +0.135 C 
ATOM     14  N   UNL     1       9.414   5.953  11.271  0.00  0.00    -0.254 N 
ATOM     15  C   UNL     1       8.488   5.874  10.307  0.00  0.00    +0.317 C 
ATOM     16  O   UNL     1       7.462   6.525  10.319  0.00  0.00    -0.252 OA
ATOM     17  H   UNL     1       9.251   3.342   7.482  0.00  0.00    +0.156 HD
BRANCH  14  18
ATOM     18  C   UNL     1       9.339   6.773  12.403  0.00  0.00    +0.038 A 
ATOM     19  C   UNL     1       8.156   7.436  12.705  0.00  0.00    +0.023 A 
ATOM     20  C   UNL     1       8.085   8.244  13.822  0.00  0.00    +0.002 A 
ATOM     21  C   UNL     1       9.190   8.395  14.640  0.00  0.00    +0.000 A 
ATOM     22  C   UNL     1      10.369   7.737  14.341  0.00  0.00    +0.002 A 
ATOM     23  C   UNL     1      10.445   6.922  13.229  0.00  0.00    +0.023 A 
ENDBRANCH  14  18
ENDBRANCH   4   8
BRANCH   1  24
ATOM     24  O   UNL     1       4.943   2.248   3.342  0.00  0.00    -0.452 OA
BRANCH  24  30
ATOM     25  C   UNL     1       2.832   1.381  -0.951  0.00  0.00    +0.055 A 
ATOM     26  C   UNL     1       3.767   2.314  -1.276  0.00  0.00    +0.047 A 
ATOM     27  C   UNL     1       4.612   2.838  -0.281  0.00  0.00    +0.082 A 
ATOM     28  C   UNL     1       4.403   2.328   1.019  0.00  0.00    +0.080 A 
ATOM     29  S   UNL     1       3.070   1.176   0.806  0.00  0.00    -0.080 S 
ATOM     30  C   UNL     1       5.158   2.750   2.099  0.00  0.00    +0.146 A 
ATOM     31  C   UNL     1       6.145   3.706   1.871  0.00  0.00    +0.067 A 
ATOM     32  C   UNL     1       6.317   4.181   0.582  0.00  0.00    +0.115 A 
ATOM     33  N   UNL     1       5.589   3.764  -0.422  0.00  0.00    -0.254 NA
BRANCH  25  38
ATOM     34  N   UNL     1       1.427  -0.579  -1.710  0.00  0.00    -0.332 N 
ATOM     35  C   UNL     1       0.528  -0.796  -2.719  0.00  0.00    +0.105 A 
ATOM     36  C   UNL     1       0.441   0.351  -3.424  0.00  0.00    +0.102 A 
ATOM     37  N   UNL     1       1.259   1.252  -2.870  0.00  0.00    -0.345 N 
ATOM     38  C   UNL     1       1.859   0.711  -1.831  0.00  0.00    +0.125 A 
ATOM     39  H   UNL     1       1.388   2.161  -3.183  0.00  0.00    +0.167 HD
BRANCH  34  41
ATOM     40  C   UNL     1       0.991  -1.357   0.568  0.00  0.00    +0.027 C 
ATOM     41  C   UNL     1       1.842  -1.545  -0.690  0.00  0.00    +0.120 C 
ENDBRANCH  34  41
ENDBRANCH  25  38
ENDBRANCH  24  30
ENDBRANCH   1  24
TORSDOF 6
