REMARK  Name = CHEMBL566010
REMARK  7 active torsions:
REMARK  status: ('A' for Active; 'I' for Inactive)
REMARK    1  A    between atoms: C_4  and  N_7
REMARK    2  A    between atoms: C_8  and  C_10
REMARK    3  A    between atoms: C_10  and  C_11
REMARK    4  A    between atoms: N_13  and  C_14
REMARK    5  A    between atoms: C_17  and  O_21
REMARK    6  A    between atoms: O_21  and  C_22
REMARK    7  A    between atoms: C_29  and  C_31
REMARK                            x       y       z     vdW  Elec       q    Type
REMARK                         _______ _______ _______ _____ _____    ______ ____
ROOT
ATOM      1  C   UNL     1       5.751  -6.478   0.262  0.00  0.00    +0.036 A 
ATOM      2  C   UNL     1       4.457  -6.955   0.097  0.00  0.00    +0.027 A 
ATOM      3  C   UNL     1       4.218  -8.315   0.077  0.00  0.00    +0.051 A 
ATOM      4  C   UNL     1       5.271  -9.206   0.220  0.00  0.00    +0.164 A 
ATOM      5  C   UNL     1       6.566  -8.732   0.385  0.00  0.00    +0.167 A 
ATOM      6  C   UNL     1       6.806  -7.370   0.400  0.00  0.00    +0.065 A 
ATOM      7  F   UNL     1       7.592  -9.600   0.525  0.00  0.00    -0.202 F 
ENDROOT
BRANCH   1  10
ATOM      8  C   UNL     1       5.074  -4.262   0.805  0.00  0.00    +0.226 C 
ATOM      9  O   UNL     1       4.079  -4.708   1.336  0.00  0.00    -0.275 OA
ATOM     10  N   UNL     1       5.992  -5.099   0.283  0.00  0.00    -0.285 N 
ATOM     11  H   UNL     1       6.820  -4.745  -0.079  0.00  0.00    +0.155 HD
BRANCH   8  12
ATOM     12  C   UNL     1       5.283  -2.771   0.729  0.00  0.00    +0.192 C 
BRANCH  12  14
ATOM     13  N   UNL     1       4.091  -0.721   1.431  0.00  0.00    -0.285 N 
ATOM     14  C   UNL     1       4.121  -2.067   1.380  0.00  0.00    +0.226 C 
ATOM     15  O   UNL     1       3.212  -2.712   1.859  0.00  0.00    -0.275 OA
ATOM     16  H   UNL     1       4.778  -0.203   0.983  0.00  0.00    +0.155 HD
BRANCH  13  20
ATOM     17  C   UNL     1       1.049   1.220   3.513  0.00  0.00    +0.000 A 
ATOM     18  C   UNL     1       1.520  -0.001   3.959  0.00  0.00    +0.002 A 
ATOM     19  C   UNL     1       2.528  -0.647   3.271  0.00  0.00    +0.023 A 
ATOM     20  C   UNL     1       3.069  -0.069   2.130  0.00  0.00    +0.033 A 
ATOM     21  C   UNL     1       2.594   1.157   1.684  0.00  0.00    +0.023 A 
ATOM     22  C   UNL     1       1.585   1.799   2.377  0.00  0.00    +0.002 A 
ENDBRANCH  13  20
ENDBRANCH  12  14
ENDBRANCH   8  12
ENDBRANCH   1  10
BRANCH   4  23
ATOM     23  O   UNL     1       5.035 -10.546   0.200  0.00  0.00    -0.452 OA
BRANCH  23  24
ATOM     24  C   UNL     1       4.918 -11.190   1.389  0.00  0.00    +0.146 A 
ATOM     25  C   UNL     1       4.924 -10.487   2.590  0.00  0.00    +0.067 A 
ATOM     26  C   UNL     1       4.801 -11.201   3.773  0.00  0.00    +0.115 A 
ATOM     27  N   UNL     1       4.680 -12.502   3.797  0.00  0.00    -0.254 NA
ATOM     28  C   UNL     1       4.665 -13.256   2.673  0.00  0.00    +0.082 A 
ATOM     29  C   UNL     1       4.782 -12.568   1.445  0.00  0.00    +0.080 A 
ATOM     30  S   UNL     1       4.713 -13.863   0.234  0.00  0.00    -0.078 S 
ATOM     31  C   UNL     1       4.528 -15.246   1.347  0.00  0.00    +0.077 A 
ATOM     32  C   UNL     1       4.542 -14.653   2.571  0.00  0.00    +0.049 A 
BRANCH  31  33
ATOM     33  C   UNL     1       4.405 -16.676   1.021  0.00  0.00    +0.253 C 
ATOM     34  O   UNL     1       4.285 -17.494   1.913  0.00  0.00    -0.269 OA
ATOM     35  N   UNL     1       4.426 -17.078  -0.265  0.00  0.00    -0.297 N 
ATOM     36  C   UNL     1       4.572 -16.200  -1.435  0.00  0.00    +0.108 C 
ATOM     37  C   UNL     1       4.514 -17.096  -2.690  0.00  0.00    +0.020 C 
ATOM     38  C   UNL     1       3.772 -18.360  -2.181  0.00  0.00    +0.020 C 
ATOM     39  C   UNL     1       4.312 -18.472  -0.731  0.00  0.00    +0.108 C 
ENDBRANCH  31  33
ENDBRANCH  23  24
ENDBRANCH   4  23
TORSDOF 7
