REMARK  Name = CHEMBL118386
REMARK  6 active torsions:
REMARK  status: ('A' for Active; 'I' for Inactive)
REMARK    1  A    between atoms: C_3  and  C_16
REMARK    2  A    between atoms: C_5  and  O_7
REMARK    3  A    between atoms: O_7  and  C_8
REMARK    4  A    between atoms: C_8  and  C_9
REMARK    5  A    between atoms: C_9  and  N_10
REMARK    6  A    between atoms: C_20  and  C_25
REMARK                            x       y       z     vdW  Elec       q    Type
REMARK                         _______ _______ _______ _____ _____    ______ ____
ROOT
ATOM      1  C   UNL     1      -0.332   1.355   0.164  0.00  0.00    +0.004 A 
ATOM      2  C   UNL     1       0.808   2.133   0.119  0.00  0.00    +0.009 A 
ATOM      3  C   UNL     1       2.061   1.528   0.029  0.00  0.00    -0.012 A 
ATOM      4  C   UNL     1       2.158   0.140  -0.015  0.00  0.00    +0.054 A 
ATOM      5  C   UNL     1       1.009  -0.633   0.030  0.00  0.00    +0.121 A 
ATOM      6  C   UNL     1      -0.235  -0.023   0.119  0.00  0.00    +0.045 A 
ENDROOT
BRANCH   3   7
ATOM      7  C   UNL     1       3.288   2.362  -0.019  0.00  0.00    +0.019 A 
ATOM      8  C   UNL     1       4.099   2.373  -1.175  0.00  0.00    +0.123 A 
ATOM      9  N   UNL     1       5.182   3.111  -1.212  0.00  0.00    -0.235 NA
ATOM     10  C   UNL     1       5.538   3.864  -0.165  0.00  0.00    +0.163 A 
ATOM     11  C   UNL     1       6.620   4.724   0.053  0.00  0.00    +0.046 A 
ATOM     12  C   UNL     1       6.481   5.247   1.342  0.00  0.00    +0.145 A 
ATOM     13  N   UNL     1       5.395   4.752   1.887  0.00  0.00    -0.173 NA
ATOM     14  N   UNL     1       4.779   3.884   0.978  0.00  0.00    -0.221 N 
ATOM     15  C   UNL     1       3.643   3.132   1.052  0.00  0.00    +0.124 A 
BRANCH  11  16
ATOM     16  C   UNL     1       7.713   5.024  -0.905  0.00  0.00    -0.006 A 
ATOM     17  C   UNL     1       8.073   6.339  -1.183  0.00  0.00    +0.016 A 
ATOM     18  C   UNL     1       9.074   6.573  -2.063  0.00  0.00    +0.046 A 
ATOM     19  S   UNL     1       9.552   4.921  -2.539  0.00  0.00    -0.104 S 
ATOM     20  C   UNL     1       8.390   4.016  -1.530  0.00  0.00    +0.053 A 
ENDBRANCH  11  16
ENDBRANCH   3   7
BRANCH   5  21
ATOM     21  O   UNL     1       1.099  -1.988  -0.014  0.00  0.00    -0.494 OA
BRANCH  21  22
ATOM     22  C   UNL     1      -0.126  -2.722   0.037  0.00  0.00    +0.210 C 
BRANCH  22  23
ATOM     23  C   UNL     1       0.175  -4.221  -0.023  0.00  0.00    -0.037 C 
BRANCH  23  24
ATOM     24  N   UNL     1       0.941  -4.615   1.167  0.00  0.00    +0.385 N 
ATOM     25  C   UNL     1       1.353  -6.020   1.041  0.00  0.00    -0.050 C 
ATOM     26  C   UNL     1       2.152  -6.427   2.282  0.00  0.00    +0.141 C 
ATOM     27  O   UNL     1       1.351  -6.217   3.448  0.00  0.00    -0.383 OA
ATOM     28  C   UNL     1       0.904  -4.867   3.602  0.00  0.00    +0.141 C 
ATOM     29  C   UNL     1       0.103  -4.457   2.364  0.00  0.00    -0.050 C 
ATOM     30  H   UNL     1       1.759  -4.030   1.249  0.00  0.00    -0.081 HD
ENDBRANCH  23  24
ENDBRANCH  22  23
ENDBRANCH  21  22
ENDBRANCH   5  21
TORSDOF 6
