REMARK  Name = CHEMBL495749
REMARK  5 active torsions:
REMARK  status: ('A' for Active; 'I' for Inactive)
REMARK    1  A    between atoms: C_1  and  N_2
REMARK    2  A    between atoms: C_6  and  O_8
REMARK    3  A    between atoms: O_8  and  C_9
REMARK    4  A    between atoms: C_15  and  N_31
REMARK    5  A    between atoms: C_16  and  C_21
REMARK                            x       y       z     vdW  Elec       q    Type
REMARK                         _______ _______ _______ _____ _____    ______ ____
ROOT
ATOM      1  C   UNL     1       2.516  -3.392   0.174  0.00  0.00    +0.132 A 
ATOM      2  C   UNL     1       2.621  -4.084   1.368  0.00  0.00    +0.046 A 
ATOM      3  C   UNL     1       3.420  -5.212   1.454  0.00  0.00    +0.006 A 
ATOM      4  C   UNL     1       4.123  -5.665   0.357  0.00  0.00    +0.026 A 
ATOM      5  C   UNL     1       4.036  -4.989  -0.854  0.00  0.00    +0.054 A 
ATOM      6  C   UNL     1       3.221  -3.846  -0.951  0.00  0.00    +0.061 A 
ATOM      7  C   UNL     1       3.131  -3.142  -2.233  0.00  0.00    +0.053 A 
ATOM      8  C   UNL     1       3.859  -3.646  -3.315  0.00  0.00    +0.103 A 
ATOM      9  C   UNL     1       4.652  -4.805  -3.144  0.00  0.00    +0.262 A 
ATOM     10  O   UNL     1       5.284  -5.238  -4.092  0.00  0.00    -0.267 OA
ATOM     11  N   UNL     1       4.735  -5.433  -1.960  0.00  0.00    -0.321 N 
ATOM     12  H   UNL     1       5.290  -6.224  -1.882  0.00  0.00    +0.169 HD
ENDROOT
BRANCH   8  13
ATOM     13  C   UNL     1       3.801  -2.975  -4.624  0.00  0.00    +0.146 A 
ATOM     14  N   UNL     1       4.546  -3.320  -5.721  0.00  0.00    -0.338 N 
ATOM     15  H   UNL     1       5.196  -4.039  -5.773  0.00  0.00    +0.167 HD
ATOM     16  C   UNL     1       4.198  -2.453  -6.741  0.00  0.00    +0.066 A 
ATOM     17  C   UNL     1       4.604  -2.308  -8.060  0.00  0.00    +0.028 A 
ATOM     18  C   UNL     1       4.052  -1.316  -8.843  0.00  0.00    +0.002 A 
ATOM     19  C   UNL     1       3.093  -0.460  -8.322  0.00  0.00    +0.002 A 
ATOM     20  C   UNL     1       2.677  -0.588  -7.016  0.00  0.00    +0.030 A 
ATOM     21  C   UNL     1       3.226  -1.589  -6.208  0.00  0.00    +0.089 A 
ATOM     22  N   UNL     1       3.023  -1.958  -4.919  0.00  0.00    -0.227 NA
ENDBRANCH   8  13
BRANCH   7  23
ATOM     23  N   UNL     1       2.352  -2.018  -2.369  0.00  0.00    -0.357 N 
ATOM     24  H   UNL     1       2.202  -1.437  -1.607  0.00  0.00    +0.142 HD
ATOM     25  H   UNL     1       1.951  -1.806  -3.227  0.00  0.00    +0.142 HD
ENDBRANCH   7  23
BRANCH   1  26
ATOM     26  O   UNL     1       1.734  -2.287   0.090  0.00  0.00    -0.490 OA
BRANCH  26  32
ATOM     27  C   UNL     1      -0.294   1.356  -0.089  0.00  0.00    -0.096 C 
ATOM     28  N   UNL     1      -0.077  -0.088   0.066  0.00  0.00    +0.380 N 
ATOM     29  C   UNL     1      -1.361  -0.749   0.326  0.00  0.00    -0.079 C 
ATOM     30  C   UNL     1      -1.153  -2.263   0.409  0.00  0.00    -0.015 C 
ATOM     31  C   UNL     1      -0.176  -2.577   1.545  0.00  0.00    +0.041 C 
ATOM     32  C   UNL     1       1.135  -1.823   1.302  0.00  0.00    +0.157 C 
ATOM     33  C   UNL     1       0.842  -0.326   1.187  0.00  0.00    -0.034 C 
ATOM     34  H   UNL     1       0.325  -0.460  -0.781  0.00  0.00    -0.082 HD
ENDBRANCH  26  32
ENDBRANCH   1  26
TORSDOF 4
