REMARK  Name = CHEMBL272691
REMARK  7 active torsions:
REMARK  status: ('A' for Active; 'I' for Inactive)
REMARK    1  A    between atoms: C_1  and  O_2
REMARK    2  A    between atoms: O_2  and  C_3
REMARK    3  A    between atoms: C_6  and  O_15
REMARK    4  A    between atoms: C_12  and  O_13
REMARK    5  A    between atoms: O_13  and  C_14
REMARK    6  A    between atoms: O_15  and  C_16
REMARK    7  A    between atoms: C_25  and  C_26
REMARK                            x       y       z     vdW  Elec       q    Type
REMARK                         _______ _______ _______ _____ _____    ______ ____
ROOT
ATOM      1  C   UNL     1       2.870   2.335   5.186  0.00  0.00    +0.129 A 
ATOM      2  C   UNL     1       3.545   1.695   6.230  0.00  0.00    +0.047 A 
ATOM      3  C   UNL     1       4.112   2.412   7.239  0.00  0.00    +0.013 A 
ATOM      4  C   UNL     1       4.019   3.811   7.237  0.00  0.00    -0.006 A 
ATOM      5  C   UNL     1       3.336   4.464   6.182  0.00  0.00    -0.014 A 
ATOM      6  C   UNL     1       2.767   3.697   5.151  0.00  0.00    +0.054 A 
ATOM      7  C   UNL     1       3.245   5.867   6.179  0.00  0.00    +0.008 A 
ATOM      8  C   UNL     1       3.810   6.591   7.185  0.00  0.00    +0.001 A 
ATOM      9  C   UNL     1       4.484   5.969   8.228  0.00  0.00    +0.014 A 
ATOM     10  C   UNL     1       4.598   4.587   8.272  0.00  0.00    +0.045 A 
ENDROOT
BRANCH  10  11
ATOM     11  C   UNL     1       5.315   3.933   9.382  0.00  0.00    +0.250 C 
ATOM     12  O   UNL     1       5.509   2.732   9.357  0.00  0.00    -0.270 OA
ATOM     13  N   UNL     1       5.755   4.665  10.424  0.00  0.00    -0.261 N 
ATOM     14  C   UNL     1       6.431   4.049  11.470  0.00  0.00    +0.165 A 
ATOM     15  N   UNL     1       6.734   2.776  11.610  0.00  0.00    -0.233 NA
ATOM     16  C   UNL     1       7.386   2.344  12.673  0.00  0.00    +0.120 A 
ATOM     17  C   UNL     1       7.726   3.268  13.605  0.00  0.00    +0.068 A 
ATOM     18  S   UNL     1       7.067   4.750  12.861  0.00  0.00    -0.061 S 
ATOM     19  H   UNL     1       5.601   5.623  10.444  0.00  0.00    +0.157 HD
ENDBRANCH  10  11
BRANCH   1  20
ATOM     20  O   UNL     1       2.314   1.594   4.192  0.00  0.00    -0.455 OA
BRANCH  20  24
ATOM     21  C   UNL     1       0.276  -0.509   1.177  0.00  0.00    +0.162 A 
ATOM     22  C   UNL     1       0.964   0.183   2.131  0.00  0.00    +0.063 A 
ATOM     23  C   UNL     1       0.472   0.233   3.443  0.00  0.00    +0.044 A 
ATOM     24  C   UNL     1       1.157   0.940   4.457  0.00  0.00    +0.139 A 
ATOM     25  C   UNL     1       0.610   0.944   5.728  0.00  0.00    +0.064 A 
ATOM     26  C   UNL     1      -0.577   0.264   5.969  0.00  0.00    +0.086 A 
ATOM     27  N   UNL     1      -1.205  -0.390   5.021  0.00  0.00    -0.360 N 
ATOM     28  C   UNL     1      -0.734  -0.436   3.769  0.00  0.00    +0.054 A 
ATOM     29  C   UNL     1      -1.419  -1.140   2.765  0.00  0.00    +0.075 A 
ATOM     30  C   UNL     1      -0.921  -1.167   1.495  0.00  0.00    +0.163 A 
ATOM     31  H   UNL     1      -2.032  -0.852   5.232  0.00  0.00    +0.165 HD
BRANCH  21  33
ATOM     32  C   UNL     1       1.976   0.133  -0.356  0.00  0.00    +0.277 C 
ATOM     33  O   UNL     1       0.753  -0.557  -0.096  0.00  0.00    -0.491 OA
ENDBRANCH  21  33
BRANCH  30  34
ATOM     34  O   UNL     1      -1.591  -1.846   0.526  0.00  0.00    -0.491 OA
ATOM     35  C   UNL     1      -2.804  -2.496   0.911  0.00  0.00    +0.277 C 
ENDBRANCH  30  34
ENDBRANCH  20  24
ENDBRANCH   1  20
TORSDOF 5
