REMARK  Name = CHEMBL495763
REMARK  5 active torsions:
REMARK  status: ('A' for Active; 'I' for Inactive)
REMARK    1  A    between atoms: C_1  and  C_2
REMARK    2  A    between atoms: C_8  and  N_31
REMARK    3  A    between atoms: C_9  and  C_14
REMARK    4  A    between atoms: C_20  and  N_24
REMARK    5  A    between atoms: N_27  and  C_30
REMARK                            x       y       z     vdW  Elec       q    Type
REMARK                         _______ _______ _______ _____ _____    ______ ____
ROOT
ATOM      1  C   UNL     1      -0.026  -0.275   5.292  0.00  0.00    +0.146 A 
ATOM      2  N   UNL     1      -0.018  -0.982   6.466  0.00  0.00    -0.338 N 
ATOM      3  H   UNL     1       0.073  -1.943   6.558  0.00  0.00    +0.167 HD
ATOM      4  C   UNL     1      -0.163  -0.066   7.495  0.00  0.00    +0.067 A 
ATOM      5  C   UNL     1      -0.226  -0.178   8.877  0.00  0.00    +0.029 A 
ATOM      6  C   UNL     1      -0.379   0.951   9.653  0.00  0.00    +0.025 A 
ATOM      7  C   UNL     1      -0.473   2.208   9.058  0.00  0.00    +0.032 A 
ATOM      8  C   UNL     1      -0.413   2.336   7.683  0.00  0.00    +0.053 A 
ATOM      9  C   UNL     1      -0.257   1.198   6.887  0.00  0.00    +0.091 A 
ATOM     10  N   UNL     1      -0.162   1.007   5.548  0.00  0.00    -0.227 NA
ENDROOT
BRANCH   1  19
ATOM     11  C   UNL     1       0.433   1.605   0.433  0.00  0.00    +0.044 C 
ATOM     12  C   UNL     1       0.444   0.100   0.348  0.00  0.00    -0.040 A 
ATOM     13  C   UNL     1       0.568  -0.523  -0.873  0.00  0.00    +0.004 A 
ATOM     14  C   UNL     1       0.578  -1.909  -0.956  0.00  0.00    +0.002 A 
ATOM     15  C   UNL     1       0.466  -2.682   0.180  0.00  0.00    +0.026 A 
ATOM     16  C   UNL     1       0.340  -2.073   1.424  0.00  0.00    +0.051 A 
ATOM     17  C   UNL     1       0.335  -0.669   1.509  0.00  0.00    +0.023 A 
ATOM     18  C   UNL     1       0.208  -0.035   2.828  0.00  0.00    +0.050 A 
ATOM     19  C   UNL     1       0.103  -0.862   3.948  0.00  0.00    +0.103 A 
ATOM     20  C   UNL     1       0.121  -2.268   3.784  0.00  0.00    +0.262 A 
ATOM     21  O   UNL     1       0.029  -2.982   4.768  0.00  0.00    -0.267 OA
ATOM     22  N   UNL     1       0.226  -2.834   2.571  0.00  0.00    -0.321 N 
ATOM     23  H   UNL     1       0.234  -3.801   2.500  0.00  0.00    +0.169 HD
BRANCH  18  24
ATOM     24  N   UNL     1       0.194   1.333   2.955  0.00  0.00    -0.357 N 
ATOM     25  H   UNL     1      -0.447   1.758   3.546  0.00  0.00    +0.142 HD
ATOM     26  H   UNL     1       0.824   1.873   2.454  0.00  0.00    +0.142 HD
ENDBRANCH  18  24
ENDBRANCH   1  19
BRANCH   7  27
ATOM     27  N   UNL     1      -0.630   3.346   9.857  0.00  0.00    -0.327 N 
ATOM     28  C   UNL     1      -0.815   3.227  11.312  0.00  0.00    +0.120 C 
ATOM     29  C   UNL     1       0.196   4.146  12.007  0.00  0.00    +0.103 C 
ATOM     30  N   UNL     1       0.063   5.508  11.473  0.00  0.00    -0.302 NA
ATOM     31  C   UNL     1       0.389   5.553  10.041  0.00  0.00    +0.103 C 
ATOM     32  C   UNL     1      -0.608   4.692   9.266  0.00  0.00    +0.120 C 
ATOM     33  C   UNL     1       0.891   6.454  12.232  0.00  0.00    +0.105 C 
ENDBRANCH   7  27
TORSDOF 3
