REMARK  Name = CHEMBL244288
REMARK  9 active torsions:
REMARK  status: ('A' for Active; 'I' for Inactive)
REMARK    1  A    between atoms: C_1  and  O_2
REMARK    2  A    between atoms: O_2  and  C_3
REMARK    3  A    between atoms: C_3  and  N_5
REMARK    4  A    between atoms: C_11  and  O_16
REMARK    5  A    between atoms: O_16  and  C_17
REMARK    6  A    between atoms: C_20  and  C_23
REMARK    7  A    between atoms: C_23  and  C_24
REMARK    8  A    between atoms: N_26  and  C_27
REMARK    9  A    between atoms: C_29  and  C_34
REMARK                            x       y       z     vdW  Elec       q    Type
REMARK                         _______ _______ _______ _____ _____    ______ ____
ROOT
ATOM      1  C   UNL     1      -8.680  -6.742   0.353  0.00  0.00    +0.128 A 
ATOM      2  C   UNL     1      -9.362  -5.539   0.471  0.00  0.00    +0.046 A 
ATOM      3  C   UNL     1     -10.737  -5.535   0.604  0.00  0.00    +0.008 A 
ATOM      4  C   UNL     1     -11.434  -6.729   0.619  0.00  0.00    -0.038 A 
ATOM      5  C   UNL     1     -10.757  -7.929   0.501  0.00  0.00    +0.008 A 
ATOM      6  C   UNL     1      -9.383  -7.938   0.362  0.00  0.00    +0.046 A 
ENDROOT
BRANCH   1   7
ATOM      7  O   UNL     1      -7.328  -6.748   0.223  0.00  0.00    -0.456 OA
BRANCH   7  14
ATOM      8  N   UNL     1      -4.893 -13.090  -2.027  0.00  0.00    -0.109 NA
ATOM      9  C   UNL     1      -5.223 -11.971  -1.393  0.00  0.00    +0.201 A 
ATOM     10  N   UNL     1      -5.978 -10.965  -1.911  0.00  0.00    -0.326 N 
ATOM     11  H   UNL     1      -6.365 -10.945  -2.800  0.00  0.00    +0.169 HD
ATOM     12  C   UNL     1      -6.101  -9.970  -0.945  0.00  0.00    +0.069 A 
ATOM     13  C   UNL     1      -6.749  -8.744  -0.929  0.00  0.00    +0.074 A 
ATOM     14  C   UNL     1      -6.694  -7.950   0.205  0.00  0.00    +0.131 A 
ATOM     15  C   UNL     1      -5.992  -8.380   1.324  0.00  0.00    +0.048 A 
ATOM     16  C   UNL     1      -5.345  -9.599   1.313  0.00  0.00    +0.031 A 
ATOM     17  C   UNL     1      -5.396 -10.400   0.181  0.00  0.00    +0.066 A 
ATOM     18  N   UNL     1      -4.863 -11.652  -0.121  0.00  0.00    -0.326 N 
ATOM     19  H   UNL     1      -4.326 -12.199   0.473  0.00  0.00    +0.169 HD
BRANCH   8  20
ATOM     20  C   UNL     1      -4.238 -14.058  -1.379  0.00  0.00    +0.427 C 
ATOM     21  O   UNL     1      -3.861 -13.877  -0.235  0.00  0.00    -0.224 OA
BRANCH  20  23
ATOM     22  C   UNL     1      -3.289 -16.225  -1.239  0.00  0.00    +0.282 C 
ATOM     23  O   UNL     1      -3.994 -15.236  -1.992  0.00  0.00    -0.452 OA
ENDBRANCH  20  23
ENDBRANCH   8  20
ENDBRANCH   7  14
ENDBRANCH   1   7
BRANCH   4  24
ATOM     24  C   UNL     1     -12.934  -6.723   0.764  0.00  0.00    +0.131 C 
BRANCH  24  25
ATOM     25  C   UNL     1     -13.571  -6.658  -0.600  0.00  0.00    +0.222 C 
ATOM     26  O   UNL     1     -12.875  -6.621  -1.593  0.00  0.00    -0.275 OA
ATOM     27  N   UNL     1     -14.913  -6.642  -0.718  0.00  0.00    -0.283 N 
ATOM     28  H   UNL     1     -15.469  -6.614   0.077  0.00  0.00    +0.155 HD
BRANCH  27  29
ATOM     29  C   UNL     1     -15.506  -6.664  -1.986  0.00  0.00    +0.070 A 
ATOM     30  C   UNL     1     -14.811  -6.184  -3.087  0.00  0.00    +0.038 A 
ATOM     31  C   UNL     1     -15.398  -6.208  -4.338  0.00  0.00    +0.057 A 
ATOM     32  C   UNL     1     -16.677  -6.710  -4.494  0.00  0.00    +0.015 A 
ATOM     33  C   UNL     1     -17.374  -7.188  -3.400  0.00  0.00    +0.041 A 
ATOM     34  C   UNL     1     -16.790  -7.173  -2.146  0.00  0.00    +0.145 A 
ATOM     35  F   UNL     1     -17.469  -7.646  -1.078  0.00  0.00    -0.204 F 
BRANCH  31  36
ATOM     36  C   UNL     1     -14.642  -5.687  -5.533  0.00  0.00    +0.417 C 
ATOM     37  F   UNL     1     -13.911  -6.729  -6.114  0.00  0.00    -0.166 F 
ATOM     38  F   UNL     1     -15.547  -5.175  -6.469  0.00  0.00    -0.166 F 
ATOM     39  F   UNL     1     -13.768  -4.674  -5.127  0.00  0.00    -0.166 F 
ENDBRANCH  31  36
ENDBRANCH  27  29
ENDBRANCH  24  25
ENDBRANCH   4  24
TORSDOF 8
