REMARK  Name = CHEMBL394619
REMARK  5 active torsions:
REMARK  status: ('A' for Active; 'I' for Inactive)
REMARK    1  A    between atoms: C_1  and  C_2
REMARK    2  A    between atoms: C_6  and  N_8
REMARK    3  A    between atoms: N_11  and  C_12
REMARK    4  A    between atoms: C_15  and  C_18
REMARK    5  A    between atoms: C_23  and  N_27
REMARK                            x       y       z     vdW  Elec       q    Type
REMARK                         _______ _______ _______ _____ _____    ______ ____
ROOT
ATOM      1  C   UNL     1      -0.490  -6.266   2.430  0.00  0.00    +0.035 A 
ATOM      2  C   UNL     1       0.046  -7.004   1.381  0.00  0.00    +0.024 A 
ATOM      3  C   UNL     1       0.100  -8.380   1.462  0.00  0.00    +0.010 A 
ATOM      4  C   UNL     1      -0.383  -9.030   2.598  0.00  0.00    -0.017 A 
ATOM      5  C   UNL     1      -0.920  -8.286   3.648  0.00  0.00    +0.010 A 
ATOM      6  C   UNL     1      -0.967  -6.911   3.564  0.00  0.00    +0.024 A 
ENDROOT
BRANCH   4   7
ATOM      7  C   UNL     1      -0.326 -10.508   2.687  0.00  0.00    +0.000 A 
ATOM      8  C   UNL     1      -1.453 -11.230   2.890  0.00  0.00    +0.055 A 
ATOM      9  S   UNL     1      -0.870 -12.914   2.920  0.00  0.00    -0.096 S 
ATOM     10  C   UNL     1       0.858 -12.616   2.662  0.00  0.00    +0.024 A 
ATOM     11  C   UNL     1       0.946 -11.212   2.552  0.00  0.00    +0.035 A 
ATOM     12  C   UNL     1       2.247 -10.692   2.333  0.00  0.00    +0.102 A 
ATOM     13  N   UNL     1       3.287 -11.495   2.239  0.00  0.00    -0.349 N 
ATOM     14  C   UNL     1       3.197 -12.812   2.338  0.00  0.00    +0.085 A 
ATOM     15  C   UNL     1       1.985 -13.410   2.559  0.00  0.00    +0.033 A 
ATOM     16  H   UNL     1       4.161 -11.102   2.088  0.00  0.00    +0.167 HD
BRANCH  12  17
ATOM     17  N   UNL     1       2.427  -9.320   2.217  0.00  0.00    -0.344 N 
ATOM     18  H   UNL     1       1.812  -8.711   2.656  0.00  0.00    +0.144 HD
ATOM     19  H   UNL     1       3.167  -8.970   1.698  0.00  0.00    +0.144 HD
ENDBRANCH  12  17
ENDBRANCH   4   7
BRANCH   1  23
ATOM     20  N   UNL     1      -0.697  -2.931   1.054  0.00  0.00    -0.269 N 
ATOM     21  C   UNL     1      -0.744  -4.274   1.153  0.00  0.00    +0.308 C 
ATOM     22  O   UNL     1      -0.967  -4.949   0.166  0.00  0.00    -0.252 OA
ATOM     23  N   UNL     1      -0.543  -4.870   2.345  0.00  0.00    -0.269 N 
ATOM     24  H   UNL     1      -0.449  -2.396   1.825  0.00  0.00    +0.156 HD
ATOM     25  H   UNL     1      -0.437  -4.331   3.145  0.00  0.00    +0.156 HD
BRANCH  20  31
ATOM     26  C   UNL     1       0.043   0.750  -2.120  0.00  0.00    +0.044 C 
ATOM     27  C   UNL     1      -0.662  -0.522  -1.723  0.00  0.00    -0.049 A 
ATOM     28  C   UNL     1      -1.615  -1.073  -2.560  0.00  0.00    +0.003 A 
ATOM     29  C   UNL     1      -2.263  -2.240  -2.200  0.00  0.00    +0.002 A 
ATOM     30  C   UNL     1      -1.961  -2.858  -1.002  0.00  0.00    +0.023 A 
ATOM     31  C   UNL     1      -1.005  -2.307  -0.160  0.00  0.00    +0.035 A 
ATOM     32  C   UNL     1      -0.351  -1.138  -0.527  0.00  0.00    +0.026 A 
ENDBRANCH  20  31
ENDBRANCH   1  23
TORSDOF 4
