REMARK  Name = CHEMBL384909
REMARK  6 active torsions:
REMARK  status: ('A' for Active; 'I' for Inactive)
REMARK    1  A    between atoms: C_4  and  C_7
REMARK    2  A    between atoms: C_7  and  N_8
REMARK    3  A    between atoms: C_9  and  C_11
REMARK    4  A    between atoms: C_15  and  N_17
REMARK    5  A    between atoms: N_17  and  C_18
REMARK    6  A    between atoms: C_18  and  C_19
REMARK                            x       y       z     vdW  Elec       q    Type
REMARK                         _______ _______ _______ _____ _____    ______ ____
ROOT
ATOM      1  C   UNL     1       5.749  -1.841   2.986  0.00  0.00    +0.039 A 
ATOM      2  C   UNL     1       4.970  -1.410   4.063  0.00  0.00    +0.016 A 
ATOM      3  C   UNL     1       5.390  -1.643   5.355  0.00  0.00    +0.041 A 
ATOM      4  C   UNL     1       6.584  -2.305   5.591  0.00  0.00    +0.144 A 
ATOM      5  C   UNL     1       7.366  -2.739   4.524  0.00  0.00    +0.064 A 
ATOM      6  C   UNL     1       6.949  -2.513   3.223  0.00  0.00    +0.039 A 
ATOM      7  F   UNL     1       6.990  -2.530   6.860  0.00  0.00    -0.204 F 
ENDROOT
BRANCH   1   9
ATOM      8  N   UNL     1       4.141  -0.943   1.374  0.00  0.00    -0.307 N 
ATOM      9  C   UNL     1       5.300  -1.592   1.601  0.00  0.00    +0.244 C 
ATOM     10  O   UNL     1       5.977  -1.972   0.665  0.00  0.00    -0.270 OA
ATOM     11  H   UNL     1       3.601  -0.639   2.121  0.00  0.00    +0.149 HD
BRANCH   8  12
ATOM     12  C   UNL     1       3.696  -0.696   0.001  0.00  0.00    +0.139 C 
BRANCH  12  16
ATOM     13  C   UNL     1      -0.030   1.391   0.062  0.00  0.00    +0.000 A 
ATOM     14  C   UNL     1       1.157   2.098   0.051  0.00  0.00    +0.000 A 
ATOM     15  C   UNL     1       2.364   1.423   0.032  0.00  0.00    +0.005 A 
ATOM     16  C   UNL     1       2.382   0.041   0.023  0.00  0.00    -0.030 A 
ATOM     17  C   UNL     1       1.194  -0.666   0.034  0.00  0.00    +0.005 A 
ATOM     18  C   UNL     1      -0.012   0.009   0.052  0.00  0.00    +0.000 A 
ENDBRANCH  12  16
ENDBRANCH   8  12
ENDBRANCH   1   9
BRANCH   5  19
ATOM     19  N   UNL     1       8.571  -3.407   4.767  0.00  0.00    -0.337 N 
ATOM     20  H   UNL     1       8.862  -3.568   5.678  0.00  0.00    +0.146 HD
BRANCH  19  21
ATOM     21  C   UNL     1       9.395  -3.863   3.644  0.00  0.00    +0.145 C 
BRANCH  21  22
ATOM     22  C   UNL     1      10.629  -4.547   4.172  0.00  0.00    +0.028 A 
ATOM     23  C   UNL     1      10.833  -5.853   4.469  0.00  0.00    +0.125 A 
ATOM     24  N   UNL     1      12.028  -6.187   4.922  0.00  0.00    -0.233 NA
ATOM     25  C   UNL     1      12.974  -5.284   5.074  0.00  0.00    +0.164 A 
ATOM     26  S   UNL     1      12.229  -3.861   4.570  0.00  0.00    -0.055 S 
ATOM     27  N   UNL     1      14.271  -5.462   5.533  0.00  0.00    -0.279 N 
ATOM     28  C   UNL     1      14.677  -6.707   6.002  0.00  0.00    +0.124 A 
ATOM     29  C   UNL     1      15.943  -6.854   6.562  0.00  0.00    +0.044 A 
ATOM     30  C   UNL     1      16.334  -8.097   7.024  0.00  0.00    +0.005 A 
ATOM     31  C   UNL     1      15.443  -9.156   6.912  0.00  0.00    +0.020 A 
ATOM     32  C   UNL     1      14.203  -8.940   6.345  0.00  0.00    +0.113 A 
ATOM     33  N   UNL     1      13.855  -7.741   5.917  0.00  0.00    -0.240 NA
ATOM     34  H   UNL     1      14.894  -4.719   5.527  0.00  0.00    +0.155 HD
ENDBRANCH  21  22
ENDBRANCH  19  21
ENDBRANCH   5  19
TORSDOF 6
