REMARK  Name = CHEMBL198862
REMARK  12 active torsions:
REMARK  status: ('A' for Active; 'I' for Inactive)
REMARK    1  A    between atoms: C_1  and  O_2
REMARK    2  A    between atoms: O_2  and  C_3
REMARK    3  A    between atoms: C_8  and  O_9
REMARK    4  A    between atoms: O_9  and  C_10
REMARK    5  A    between atoms: C_10  and  C_11
REMARK    6  A    between atoms: C_11  and  C_12
REMARK    7  A    between atoms: C_12  and  N_13
REMARK    8  A    between atoms: C_21  and  N_22
REMARK    9  A    between atoms: C_26  and  O_30
REMARK   10  A    between atoms: O_30  and  C_31
REMARK   11  A    between atoms: C_31  and  C_32
REMARK   12  A    between atoms: C_31  and  C_34
REMARK                            x       y       z     vdW  Elec       q    Type
REMARK                         _______ _______ _______ _____ _____    ______ ____
ROOT
ATOM      1  C   UNL     1       2.013  -0.567   1.321  0.00  0.00    +0.162 A 
ATOM      2  C   UNL     1       2.342   0.178   2.419  0.00  0.00    +0.063 A 
ATOM      3  C   UNL     1       2.731  -0.466   3.598  0.00  0.00    +0.048 A 
ATOM      4  C   UNL     1       2.780  -1.885   3.644  0.00  0.00    +0.080 A 
ATOM      5  C   UNL     1       2.437  -2.623   2.503  0.00  0.00    +0.078 A 
ATOM      6  C   UNL     1       2.055  -1.969   1.365  0.00  0.00    +0.164 A 
ATOM      7  N   UNL     1       3.155  -2.478   4.784  0.00  0.00    -0.235 NA
ATOM      8  C   UNL     1       3.470  -1.760   5.838  0.00  0.00    +0.224 A 
ATOM      9  N   UNL     1       3.441  -0.440   5.847  0.00  0.00    -0.216 NA
ATOM     10  C   UNL     1       3.083   0.254   4.768  0.00  0.00    +0.164 A 
ENDROOT
BRANCH  10  11
ATOM     11  N   UNL     1       3.056   1.615   4.788  0.00  0.00    -0.228 NA
ATOM     12  C   UNL     1       1.949   2.240   5.074  0.00  0.00    +0.098 C 
ATOM     13  C   UNL     1       0.696   1.502   5.517  0.00  0.00    +0.142 C 
ATOM     14  C   UNL     1       0.195   2.194   6.766  0.00  0.00    +0.203 C 
ATOM     15  C   UNL     1       0.236   3.667   6.845  0.00  0.00    +0.169 C 
ATOM     16  C   UNL     1       1.020   4.395   6.012  0.00  0.00    +0.102 C 
ATOM     17  C   UNL     1       1.835   3.723   4.993  0.00  0.00    +0.204 C 
ATOM     18  O   UNL     1       2.392   4.354   4.115  0.00  0.00    -0.286 OA
ATOM     19  O   UNL     1      -0.235   1.546   7.691  0.00  0.00    -0.288 OA
BRANCH  15  20
ATOM     20  O   UNL     1      -0.523   4.303   7.766  0.00  0.00    -0.468 OA
BRANCH  20  21
ATOM     21  C   UNL     1      -0.533   5.732   7.724  0.00  0.00    +0.278 C 
BRANCH  21  22
ATOM     22  C   UNL     1      -1.801   6.245   8.357  0.00  0.00    +0.005 A 
ATOM     23  C   UNL     1      -2.295   5.644   9.499  0.00  0.00    +0.008 A 
ATOM     24  C   UNL     1      -3.459   6.114  10.080  0.00  0.00    +0.000 A 
ATOM     25  C   UNL     1      -4.127   7.185   9.518  0.00  0.00    +0.000 A 
ATOM     26  C   UNL     1      -3.633   7.787   8.375  0.00  0.00    +0.000 A 
ATOM     27  C   UNL     1      -2.467   7.319   7.798  0.00  0.00    +0.008 A 
ENDBRANCH  21  22
BRANCH  21  28
ATOM     28  C   UNL     1       0.629   6.252   8.463  0.00  0.00    -0.057 C 
ATOM     29  C   UNL     1       1.556   6.667   9.052  0.00  0.00    +0.008 C 
ENDBRANCH  21  28
ENDBRANCH  20  21
ENDBRANCH  15  20
ENDBRANCH  10  11
BRANCH   1  31
ATOM     30  C   UNL     1       1.611   1.486   0.192  0.00  0.00    +0.277 C 
ATOM     31  O   UNL     1       1.635   0.057   0.175  0.00  0.00    -0.491 OA
ENDBRANCH   1  31
BRANCH   6  32
ATOM     32  O   UNL     1       1.718  -2.686   0.262  0.00  0.00    -0.488 OA
BRANCH  32  33
ATOM     33  C   UNL     1       1.780  -4.109   0.368  0.00  0.00    +0.227 C 
BRANCH  33  34
ATOM     34  C   UNL     1       1.368  -4.739  -0.964  0.00  0.00    +0.022 C 
BRANCH  34  35
ATOM     35  C   UNL     1       1.435  -6.263  -0.850  0.00  0.00    -0.076 C 
BRANCH  35  36
ATOM     36  N   UNL     1       1.039  -6.868  -2.129  0.00  0.00    +0.380 N 
ATOM     37  C   UNL     1       2.065  -6.590  -3.166  0.00  0.00    -0.079 C 
ATOM     38  C   UNL     1       1.819  -7.704  -4.215  0.00  0.00    -0.020 C 
ATOM     39  C   UNL     1       1.461  -8.928  -3.341  0.00  0.00    -0.020 C 
ATOM     40  C   UNL     1       0.982  -8.340  -2.001  0.00  0.00    -0.079 C 
ATOM     41  H   UNL     1       0.142  -6.509  -2.421  0.00  0.00    -0.082 HD
ENDBRANCH  35  36
ENDBRANCH  34  35
ENDBRANCH  33  34
ENDBRANCH  32  33
ENDBRANCH   6  32
TORSDOF 11
