REMARK  Name = CHEMBL365064
REMARK  3 active torsions:
REMARK  status: ('A' for Active; 'I' for Inactive)
REMARK    1  A    between atoms: C_4  and  C_7
REMARK    2  A    between atoms: C_16  and  C_17
REMARK    3  A    between atoms: C_19  and  C_24
REMARK                            x       y       z     vdW  Elec       q    Type
REMARK                         _______ _______ _______ _____ _____    ______ ____
ROOT
ATOM      1  C   UNL     1       3.797  -0.614  -0.097  0.00  0.00    +0.015 A 
ATOM      2  C   UNL     1       4.270  -1.568  -1.104  0.00  0.00    +0.008 A 
ATOM      3  C   UNL     1       3.830  -1.912  -2.386  0.00  0.00    +0.010 A 
ATOM      4  C   UNL     1       4.497  -2.865  -3.100  0.00  0.00    +0.001 A 
ATOM      5  C   UNL     1       5.611  -3.497  -2.562  0.00  0.00    +0.002 A 
ATOM      6  C   UNL     1       6.063  -3.175  -1.302  0.00  0.00    +0.026 A 
ATOM      7  C   UNL     1       5.399  -2.205  -0.554  0.00  0.00    +0.047 A 
ATOM      8  N   UNL     1       5.614  -1.687   0.703  0.00  0.00    -0.354 N 
ATOM      9  H   UNL     1       6.331  -1.954   1.299  0.00  0.00    +0.166 HD
ATOM     10  C   UNL     1       4.664  -0.727   0.990  0.00  0.00    +0.049 A 
ENDROOT
BRANCH  10  11
ATOM     11  C   UNL     1       4.582   0.013   2.181  0.00  0.00    +0.041 C 
ATOM     12  C   UNL     1       5.743   0.373   2.856  0.00  0.00    +0.069 C 
ATOM     13  C   UNL     1       5.850   1.003   4.186  0.00  0.00    +0.121 C 
ATOM     14  N   UNL     1       7.122   1.168   4.438  0.00  0.00    -0.177 NA
ATOM     15  N   UNL     1       7.909   0.701   3.386  0.00  0.00    -0.202 N 
ATOM     16  C   UNL     1       7.130   0.203   2.405  0.00  0.00    +0.266 C 
ATOM     17  O   UNL     1       7.502  -0.287   1.352  0.00  0.00    -0.268 OA
ATOM     18  H   UNL     1       8.878   0.726   3.365  0.00  0.00    +0.178 HD
BRANCH  13  19
ATOM     19  C   UNL     1       4.724   1.380   5.072  0.00  0.00    +0.109 A 
ATOM     20  C   UNL     1       4.975   1.978   6.308  0.00  0.00    +0.140 A 
ATOM     21  N   UNL     1       3.968   2.312   7.092  0.00  0.00    -0.260 NA
ATOM     22  C   UNL     1       2.724   2.081   6.709  0.00  0.00    +0.130 A 
ATOM     23  C   UNL     1       2.470   1.489   5.484  0.00  0.00    +0.131 A 
ATOM     24  N   UNL     1       3.470   1.155   4.689  0.00  0.00    -0.250 NA
ENDBRANCH  13  19
ENDBRANCH  10  11
BRANCH   1  28
ATOM     25  C   UNL     1       0.458   1.989  -0.430  0.00  0.00    +0.000 A 
ATOM     26  C   UNL     1       1.735   2.515  -0.343  0.00  0.00    +0.001 A 
ATOM     27  C   UNL     1       2.824   1.676  -0.234  0.00  0.00    +0.008 A 
ATOM     28  C   UNL     1       2.635   0.291  -0.212  0.00  0.00    -0.015 A 
ATOM     29  C   UNL     1       1.343  -0.232  -0.300  0.00  0.00    +0.008 A 
ATOM     30  C   UNL     1       0.264   0.619  -0.409  0.00  0.00    +0.001 A 
ENDBRANCH   1  28
TORSDOF 3
