REMARK  Name = CHEMBL244297
REMARK  7 active torsions:
REMARK  status: ('A' for Active; 'I' for Inactive)
REMARK    1  A    between atoms: C_3  and  C_6
REMARK    2  A    between atoms: C_6  and  N_8
REMARK    3  A    between atoms: C_14  and  O_19
REMARK    4  A    between atoms: O_19  and  C_20
REMARK    5  A    between atoms: C_23  and  N_26
REMARK    6  A    between atoms: N_29  and  C_30
REMARK    7  A    between atoms: C_32  and  C_37
REMARK                            x       y       z     vdW  Elec       q    Type
REMARK                         _______ _______ _______ _____ _____    ______ ____
ROOT
ATOM      1  C   UNL     1      12.968  -1.484  -0.444  0.00  0.00    +0.129 A 
ATOM      2  C   UNL     1      13.058  -0.103  -0.542  0.00  0.00    +0.048 A 
ATOM      3  C   UNL     1      14.293   0.501  -0.672  0.00  0.00    +0.027 A 
ATOM      4  C   UNL     1      15.445  -0.274  -0.705  0.00  0.00    +0.035 A 
ATOM      5  C   UNL     1      15.354  -1.656  -0.605  0.00  0.00    +0.027 A 
ATOM      6  C   UNL     1      14.119  -2.259  -0.470  0.00  0.00    +0.048 A 
ENDROOT
BRANCH   4   7
ATOM      7  N   UNL     1      16.698   0.338  -0.837  0.00  0.00    -0.269 N 
ATOM      8  C   UNL     1      16.926   1.538  -0.267  0.00  0.00    +0.308 C 
ATOM      9  O   UNL     1      16.080   2.043   0.445  0.00  0.00    -0.252 OA
ATOM     10  N   UNL     1      18.092   2.177  -0.485  0.00  0.00    -0.267 N 
ATOM     11  H   UNL     1      17.402  -0.102  -1.339  0.00  0.00    +0.156 HD
ATOM     12  H   UNL     1      18.744   1.802  -1.098  0.00  0.00    +0.156 HD
BRANCH  10  13
ATOM     13  C   UNL     1      18.363   3.384   0.173  0.00  0.00    +0.071 A 
ATOM     14  C   UNL     1      17.319   4.189   0.606  0.00  0.00    +0.038 A 
ATOM     15  C   UNL     1      17.590   5.379   1.254  0.00  0.00    +0.057 A 
ATOM     16  C   UNL     1      18.898   5.769   1.472  0.00  0.00    +0.015 A 
ATOM     17  C   UNL     1      19.942   4.970   1.043  0.00  0.00    +0.041 A 
ATOM     18  C   UNL     1      19.678   3.774   0.398  0.00  0.00    +0.145 A 
ATOM     19  F   UNL     1      20.698   2.990  -0.016  0.00  0.00    -0.204 F 
BRANCH  15  20
ATOM     20  C   UNL     1      16.456   6.254   1.724  0.00  0.00    +0.417 C 
ATOM     21  F   UNL     1      16.099   5.894   3.029  0.00  0.00    -0.166 F 
ATOM     22  F   UNL     1      16.861   7.593   1.704  0.00  0.00    -0.166 F 
ATOM     23  F   UNL     1      15.355   6.086   0.877  0.00  0.00    -0.166 F 
ENDBRANCH  15  20
ENDBRANCH  10  13
ENDBRANCH   4   7
BRANCH   1  24
ATOM     24  O   UNL     1      11.752  -2.078  -0.316  0.00  0.00    -0.456 OA
BRANCH  24  31
ATOM     25  N   UNL     1      12.322  -8.881   1.829  0.00  0.00    -0.140 NA
ATOM     26  C   UNL     1      12.129  -7.721   1.214  0.00  0.00    +0.199 A 
ATOM     27  N   UNL     1      12.376  -6.494   1.749  0.00  0.00    -0.326 N 
ATOM     28  H   UNL     1      12.722  -6.321   2.639  0.00  0.00    +0.169 HD
ATOM     29  C   UNL     1      12.050  -5.530   0.800  0.00  0.00    +0.069 A 
ATOM     30  C   UNL     1      12.102  -4.144   0.804  0.00  0.00    +0.074 A 
ATOM     31  C   UNL     1      11.701  -3.436  -0.318  0.00  0.00    +0.131 A 
ATOM     32  C   UNL     1      11.248  -4.111  -1.444  0.00  0.00    +0.048 A 
ATOM     33  C   UNL     1      11.195  -5.490  -1.454  0.00  0.00    +0.031 A 
ATOM     34  C   UNL     1      11.595  -6.207  -0.335  0.00  0.00    +0.066 A 
ATOM     35  N   UNL     1      11.658  -7.570  -0.053  0.00  0.00    -0.326 N 
ATOM     36  H   UNL     1      11.408  -8.287  -0.656  0.00  0.00    +0.169 HD
BRANCH  25  37
ATOM     37  C   UNL     1      12.146 -10.030   1.162  0.00  0.00    +0.305 C 
ATOM     38  O   UNL     1      11.720 -10.014   0.019  0.00  0.00    -0.265 OA
BRANCH  37  41
ATOM     39  C   UNL     1      12.755 -13.478   2.213  0.00  0.00    +0.042 A 
ATOM     40  C   UNL     1      12.337 -12.548   1.247  0.00  0.00    +0.054 A 
ATOM     41  C   UNL     1      12.468 -11.312   1.809  0.00  0.00    +0.191 A 
ATOM     42  O   UNL     1      12.944 -11.470   3.061  0.00  0.00    -0.458 OA
ATOM     43  C   UNL     1      13.118 -12.776   3.308  0.00  0.00    +0.196 A 
ENDBRANCH  37  41
ENDBRANCH  25  37
ENDBRANCH  24  31
ENDBRANCH   1  24
TORSDOF 7
