REMARK  Name = CHEMBL196805
REMARK  11 active torsions:
REMARK  status: ('A' for Active; 'I' for Inactive)
REMARK    1  A    between atoms: C_1  and  O_2
REMARK    2  A    between atoms: O_2  and  C_3
REMARK    3  A    between atoms: C_8  and  O_9
REMARK    4  A    between atoms: O_9  and  C_10
REMARK    5  A    between atoms: C_10  and  C_11
REMARK    6  A    between atoms: C_11  and  C_12
REMARK    7  A    between atoms: C_12  and  N_13
REMARK    8  A    between atoms: C_21  and  N_22
REMARK    9  A    between atoms: C_26  and  O_30
REMARK   10  A    between atoms: O_30  and  C_31
REMARK   11  A    between atoms: C_31  and  C_32
REMARK                            x       y       z     vdW  Elec       q    Type
REMARK                         _______ _______ _______ _____ _____    ______ ____
ROOT
ATOM      1  C   UNL     1       0.513  -0.565  -1.079  0.00  0.00    +0.162 A 
ATOM      2  C   UNL     1       1.099   0.187  -2.059  0.00  0.00    +0.063 A 
ATOM      3  C   UNL     1       1.742  -0.449  -3.125  0.00  0.00    +0.048 A 
ATOM      4  C   UNL     1       1.782  -1.868  -3.180  0.00  0.00    +0.080 A 
ATOM      5  C   UNL     1       1.173  -2.614  -2.161  0.00  0.00    +0.078 A 
ATOM      6  C   UNL     1       0.556  -1.967  -1.128  0.00  0.00    +0.164 A 
ATOM      7  N   UNL     1       2.404  -2.454  -4.210  0.00  0.00    -0.235 NA
ATOM      8  C   UNL     1       2.966  -1.729  -5.151  0.00  0.00    +0.224 A 
ATOM      9  N   UNL     1       2.957  -0.409  -5.146  0.00  0.00    -0.216 NA
ATOM     10  C   UNL     1       2.367   0.278  -4.170  0.00  0.00    +0.164 A 
ENDROOT
BRANCH  10  11
ATOM     11  N   UNL     1       2.364   1.639  -4.175  0.00  0.00    -0.228 NA
ATOM     12  C   UNL     1       3.287   2.295  -3.530  0.00  0.00    +0.098 C 
ATOM     13  C   UNL     1       4.464   1.595  -2.871  0.00  0.00    +0.142 C 
ATOM     14  C   UNL     1       5.715   2.322  -3.316  0.00  0.00    +0.203 C 
ATOM     15  C   UNL     1       5.704   3.794  -3.406  0.00  0.00    +0.167 C 
ATOM     16  C   UNL     1       4.541   4.489  -3.455  0.00  0.00    +0.102 C 
ATOM     17  C   UNL     1       3.257   3.778  -3.398  0.00  0.00    +0.204 C 
ATOM     18  O   UNL     1       2.211   4.380  -3.246  0.00  0.00    -0.286 OA
ATOM     19  O   UNL     1       6.714   1.701  -3.595  0.00  0.00    -0.288 OA
BRANCH  15  20
ATOM     20  O   UNL     1       6.879   4.465  -3.439  0.00  0.00    -0.481 OA
BRANCH  20  21
ATOM     21  C   UNL     1       6.810   5.890  -3.527  0.00  0.00    +0.303 C 
BRANCH  21  22
ATOM     22  C   UNL     1       8.204   6.460  -3.553  0.00  0.00    +0.142 A 
ATOM     23  C   UNL     1       8.937   6.696  -4.656  0.00  0.00    +0.048 A 
ATOM     24  C   UNL     1      10.173   7.228  -4.221  0.00  0.00    +0.041 A 
ATOM     25  C   UNL     1      10.121   7.285  -2.878  0.00  0.00    +0.195 A 
ATOM     26  O   UNL     1       8.925   6.824  -2.479  0.00  0.00    -0.464 OA
ENDBRANCH  21  22
ENDBRANCH  20  21
ENDBRANCH  15  20
ENDBRANCH  10  11
BRANCH   1  28
ATOM     27  C   UNL     1      -0.122   1.482  -0.049  0.00  0.00    +0.277 C 
ATOM     28  O   UNL     1      -0.112   0.053  -0.042  0.00  0.00    -0.491 OA
ENDBRANCH   1  28
BRANCH   6  29
ATOM     29  O   UNL     1      -0.029  -2.690  -0.138  0.00  0.00    -0.488 OA
BRANCH  29  30
ATOM     30  C   UNL     1       0.047  -4.113  -0.242  0.00  0.00    +0.227 C 
BRANCH  30  31
ATOM     31  C   UNL     1      -0.662  -4.751   0.954  0.00  0.00    +0.022 C 
BRANCH  31  32
ATOM     32  C   UNL     1      -0.581  -6.275   0.842  0.00  0.00    -0.076 C 
BRANCH  32  33
ATOM     33  N   UNL     1      -1.261  -6.887   1.991  0.00  0.00    +0.380 N 
ATOM     34  C   UNL     1      -2.725  -6.649   1.906  0.00  0.00    -0.079 C 
ATOM     35  C   UNL     1      -3.319  -7.771   2.794  0.00  0.00    -0.020 C 
ATOM     36  C   UNL     1      -2.395  -8.974   2.495  0.00  0.00    -0.020 C 
ATOM     37  C   UNL     1      -1.089  -8.356   1.962  0.00  0.00    -0.079 C 
ATOM     38  H   UNL     1      -0.896  -6.511   2.853  0.00  0.00    -0.082 HD
ENDBRANCH  32  33
ENDBRANCH  31  32
ENDBRANCH  30  31
ENDBRANCH  29  30
ENDBRANCH   6  29
TORSDOF 10
