REMARK  Name = CHEMBL398460
REMARK  5 active torsions:
REMARK  status: ('A' for Active; 'I' for Inactive)
REMARK    1  A    between atoms: C_1  and  N_2
REMARK    2  A    between atoms: C_4  and  C_14
REMARK    3  A    between atoms: C_9  and  O_12
REMARK    4  A    between atoms: O_12  and  C_13
REMARK    5  A    between atoms: C_16  and  C_21
REMARK                            x       y       z     vdW  Elec       q    Type
REMARK                         _______ _______ _______ _____ _____    ______ ____
ROOT
ATOM      1  C   UNL     1      -0.523   1.445  -0.041  0.00  0.00    +0.149 C 
ATOM      2  N   UNL     1      -0.271   0.002  -0.039  0.00  0.00    -0.349 N 
ATOM      3  C   UNL     1      -0.306  -0.782  -1.133  0.00  0.00    +0.094 A 
ATOM      4  C   UNL     1      -0.022  -2.088  -0.775  0.00  0.00    +0.002 A 
ATOM      5  C   UNL     1       0.204  -2.074   0.685  0.00  0.00    +0.024 A 
ATOM      6  C   UNL     1       0.040  -0.739   1.085  0.00  0.00    +0.051 A 
ATOM      7  C   UNL     1       0.198  -0.405   2.426  0.00  0.00    +0.030 A 
ATOM      8  C   UNL     1       0.517  -1.379   3.348  0.00  0.00    +0.049 A 
ATOM      9  C   UNL     1       0.683  -2.701   2.950  0.00  0.00    +0.135 A 
ATOM     10  C   UNL     1       0.520  -3.053   1.622  0.00  0.00    +0.069 A 
ATOM     11 BR   UNL     1       0.748  -4.850   1.079  0.00  0.00    -0.046 Br
ENDROOT
BRANCH   4  12
ATOM     12  C   UNL     1       0.038  -3.207  -1.631  0.00  0.00    +0.025 C 
ATOM     13  C   UNL     1       0.538  -3.070  -2.919  0.00  0.00    +0.067 C 
ATOM     14  C   UNL     1       0.531  -4.077  -3.999  0.00  0.00    +0.111 C 
ATOM     15  N   UNL     1       1.100  -3.532  -5.043  0.00  0.00    -0.178 NA
ATOM     16  N   UNL     1       1.502  -2.225  -4.772  0.00  0.00    -0.202 N 
ATOM     17  C   UNL     1       1.183  -1.890  -3.506  0.00  0.00    +0.265 C 
ATOM     18  O   UNL     1       1.391  -0.821  -2.957  0.00  0.00    -0.268 OA
ATOM     19  H   UNL     1       1.945  -1.638  -5.405  0.00  0.00    +0.178 HD
BRANCH  14  20
ATOM     20  C   UNL     1      -0.017  -5.447  -3.915  0.00  0.00    +0.080 A 
ATOM     21  C   UNL     1      -0.058  -6.443  -4.867  0.00  0.00    +0.154 A 
ATOM     22  N   UNL     1      -0.621  -7.559  -4.470  0.00  0.00    -0.149 NA
ATOM     23  N   UNL     1      -1.095  -7.702  -3.283  0.00  0.00    -0.110 NA
ATOM     24  S   UNL     1      -0.807  -6.283  -2.551  0.00  0.00    +0.038 S 
ENDBRANCH  14  20
ENDBRANCH   4  12
BRANCH   9  25
ATOM     25  O   UNL     1       0.997  -3.651   3.871  0.00  0.00    -0.494 OA
ATOM     26  C   UNL     1       1.141  -3.220   5.226  0.00  0.00    +0.277 C 
ENDBRANCH   9  25
TORSDOF 3
