REMARK  Name = CHEMBL373693
REMARK  4 active torsions:
REMARK  status: ('A' for Active; 'I' for Inactive)
REMARK    1  A    between atoms: C_4  and  N_14
REMARK    2  A    between atoms: C_6  and  C_7
REMARK    3  A    between atoms: C_7  and  N_8
REMARK    4  A    between atoms: C_18  and  C_20
REMARK                            x       y       z     vdW  Elec       q    Type
REMARK                         _______ _______ _______ _____ _____    ______ ____
ROOT
ATOM      1  C   UNL     1      -0.016   1.385   0.019  0.00  0.00    +0.025 A 
ATOM      2  C   UNL     1       1.179   2.077   0.015  0.00  0.00    +0.113 A 
ATOM      3  N   UNL     1       2.332   1.436  -0.003  0.00  0.00    -0.240 NA
ATOM      4  C   UNL     1       2.391   0.114  -0.017  0.00  0.00    +0.125 A 
ATOM      5  C   UNL     1       1.227  -0.647  -0.014  0.00  0.00    +0.048 A 
ATOM      6  C   UNL     1       0.002  -0.003   0.005  0.00  0.00    -0.029 A 
ENDROOT
BRANCH   4   7
ATOM      7  N   UNL     1       3.630  -0.521  -0.036  0.00  0.00    -0.279 N 
ATOM      8  C   UNL     1       4.787   0.225  -0.148  0.00  0.00    +0.165 A 
ATOM      9  N   UNL     1       4.913   1.540  -0.152  0.00  0.00    -0.232 NA
ATOM     10  C   UNL     1       6.086   2.113  -0.266  0.00  0.00    +0.139 A 
ATOM     11  C   UNL     1       7.178   1.266  -0.381  0.00  0.00    +0.110 A 
ATOM     12  S   UNL     1       6.370  -0.325  -0.302  0.00  0.00    -0.042 S 
ATOM     13  H   UNL     1       3.680  -1.488   0.029  0.00  0.00    +0.155 HD
BRANCH  11  14
ATOM     14  C   UNL     1       8.569   1.579  -0.519  0.00  0.00    +0.108 C 
ATOM     15  N   UNL     1       9.672   1.827  -0.628  0.00  0.00    -0.190 NA
ENDBRANCH  11  14
ENDBRANCH   4   7
BRANCH   6  16
ATOM     16  C   UNL     1      -1.282  -0.791   0.009  0.00  0.00    +0.119 C 
BRANCH  16  17
ATOM     17  N   UNL     1      -1.714  -1.033  -1.374  0.00  0.00    -0.294 NA
ATOM     18  C   UNL     1      -2.085   0.226  -2.038  0.00  0.00    +0.113 C 
ATOM     19  C   UNL     1      -2.470  -0.064  -3.491  0.00  0.00    +0.175 C 
ATOM     20  O   UNL     1      -3.530  -1.023  -3.516  0.00  0.00    -0.377 OA
ATOM     21  C   UNL     1      -3.203  -2.261  -2.879  0.00  0.00    +0.175 C 
ATOM     22  C   UNL     1      -2.826  -1.993  -1.419  0.00  0.00    +0.113 C 
ENDBRANCH  16  17
ENDBRANCH   6  16
TORSDOF 4
