REMARK  Name = CHEMBL427837
REMARK  10 active torsions:
REMARK  status: ('A' for Active; 'I' for Inactive)
REMARK    1  A    between atoms: C_1  and  N_2
REMARK    2  A    between atoms: N_5  and  C_8
REMARK    3  A    between atoms: C_8  and  C_9
REMARK    4  A    between atoms: C_11  and  N_16
REMARK    5  A    between atoms: C_22  and  O_26
REMARK    6  A    between atoms: O_26  and  C_27
REMARK    7  A    between atoms: C_34  and  O_39
REMARK    8  A    between atoms: C_35  and  O_37
REMARK    9  A    between atoms: O_37  and  C_38
REMARK   10  A    between atoms: O_39  and  C_40
REMARK                            x       y       z     vdW  Elec       q    Type
REMARK                         _______ _______ _______ _____ _____    ______ ____
ROOT
ATOM      1  N   UNL     1      -0.148  -5.635   4.730  0.00  0.00    -0.285 N 
ATOM      2  C   UNL     1       0.287  -6.154   5.933  0.00  0.00    +0.198 A 
ATOM      3  N   UNL     1      -0.487  -6.660   6.859  0.00  0.00    -0.214 NA
ATOM      4  C   UNL     1       0.269  -7.076   7.910  0.00  0.00    +0.091 A 
ATOM      5  C   UNL     1      -0.039  -7.676   9.134  0.00  0.00    +0.033 A 
ATOM      6  C   UNL     1       0.971  -7.989  10.016  0.00  0.00    +0.048 A 
ATOM      7  C   UNL     1       2.296  -7.712   9.697  0.00  0.00    +0.131 A 
ATOM      8  C   UNL     1       2.615  -7.118   8.489  0.00  0.00    +0.074 A 
ATOM      9  C   UNL     1       1.608  -6.798   7.591  0.00  0.00    +0.071 A 
ATOM     10  N   UNL     1       1.593  -6.220   6.333  0.00  0.00    -0.326 N 
ATOM     11  H   UNL     1       0.495  -5.331   4.071  0.00  0.00    +0.155 HD
ATOM     12  H   UNL     1       2.364  -5.916   5.830  0.00  0.00    +0.169 HD
ENDROOT
BRANCH   1  15
ATOM     13  C   UNL     1      -3.329  -5.535   2.889  0.00  0.00    -0.013 A 
ATOM     14  C   UNL     1      -1.976  -5.620   3.152  0.00  0.00    +0.029 A 
ATOM     15  C   UNL     1      -1.518  -5.549   4.461  0.00  0.00    +0.034 A 
ATOM     16  C   UNL     1      -2.423  -5.391   5.503  0.00  0.00    +0.025 A 
ATOM     17  C   UNL     1      -3.775  -5.307   5.234  0.00  0.00    +0.022 A 
ATOM     18  C   UNL     1      -4.228  -5.373   3.928  0.00  0.00    +0.045 A 
ATOM     19 CL   UNL     1      -5.928  -5.259   3.594  0.00  0.00    -0.083 Cl
BRANCH  13  20
ATOM     20  C   UNL     1      -3.827  -5.612   1.469  0.00  0.00    +0.121 C 
BRANCH  20  25
ATOM     21  C   UNL     1      -4.956  -0.763  -1.168  0.00  0.00    -0.096 C 
ATOM     22  N   UNL     1      -4.468  -2.094  -0.786  0.00  0.00    +0.379 N 
ATOM     23  C   UNL     1      -5.612  -2.988  -0.560  0.00  0.00    -0.064 C 
ATOM     24  C   UNL     1      -5.104  -4.381  -0.180  0.00  0.00    +0.066 C 
ATOM     25  N   UNL     1      -4.287  -4.285   1.038  0.00  0.00    -0.302 NA
ATOM     26  C   UNL     1      -3.152  -3.374   0.835  0.00  0.00    +0.066 C 
ATOM     27  C   UNL     1      -3.676  -1.990   0.447  0.00  0.00    -0.064 C 
ATOM     28  H   UNL     1      -3.892  -2.467  -1.525  0.00  0.00    -0.082 HD
ENDBRANCH  20  25
ENDBRANCH  13  20
ENDBRANCH   1  15
BRANCH   7  29
ATOM     29  O   UNL     1       3.284  -8.025  10.578  0.00  0.00    -0.455 OA
BRANCH  29  30
ATOM     30  C   UNL     1       3.701  -9.314  10.634  0.00  0.00    +0.139 A 
ATOM     31  C   UNL     1       3.068 -10.302   9.899  0.00  0.00    +0.064 A 
ATOM     32  C   UNL     1       3.519 -11.613   9.976  0.00  0.00    +0.086 A 
ATOM     33  N   UNL     1       4.537 -11.952  10.732  0.00  0.00    -0.360 N 
ATOM     34  C   UNL     1       5.194 -11.049  11.469  0.00  0.00    +0.054 A 
ATOM     35  C   UNL     1       4.799  -9.690  11.441  0.00  0.00    +0.044 A 
ATOM     36  C   UNL     1       5.493  -8.744  12.211  0.00  0.00    +0.063 A 
ATOM     37  C   UNL     1       6.549  -9.143  12.978  0.00  0.00    +0.162 A 
ATOM     38  C   UNL     1       6.946 -10.488  13.005  0.00  0.00    +0.163 A 
ATOM     39  C   UNL     1       6.282 -11.429  12.274  0.00  0.00    +0.075 A 
ATOM     40  H   UNL     1       4.819 -12.879  10.758  0.00  0.00    +0.165 HD
BRANCH  38  41
ATOM     41  O   UNL     1       8.001 -10.860  13.777  0.00  0.00    -0.491 OA
ATOM     42  C   UNL     1       8.358 -12.243  13.764  0.00  0.00    +0.277 C 
ENDBRANCH  38  41
BRANCH  37  43
ATOM     43  O   UNL     1       7.222  -8.227  13.724  0.00  0.00    -0.491 OA
ATOM     44  C   UNL     1       6.770  -6.874  13.654  0.00  0.00    +0.277 C 
ENDBRANCH  37  43
ENDBRANCH  29  30
ENDBRANCH   7  29
TORSDOF 7
