REMARK  Name = CHEMBL212054
REMARK  3 active torsions:
REMARK  status: ('A' for Active; 'I' for Inactive)
REMARK    1  A    between atoms: C_6  and  N_7
REMARK    2  A    between atoms: C_10  and  N_13
REMARK    3  A    between atoms: C_20  and  C_23
REMARK                            x       y       z     vdW  Elec       q    Type
REMARK                         _______ _______ _______ _____ _____    ______ ____
ROOT
ATOM      1  C   UNL     1      -0.017   1.389  -0.007  0.00  0.00    +0.025 A 
ATOM      2  C   UNL     1       1.163   2.103  -0.015  0.00  0.00    +0.029 A 
ATOM      3  C   UNL     1       2.377   1.433  -0.013  0.00  0.00    +0.067 A 
ATOM      4  C   UNL     1       2.407   0.027  -0.004  0.00  0.00    +0.091 A 
ATOM      5  C   UNL     1       1.204  -0.687   0.003  0.00  0.00    +0.053 A 
ATOM      6  C   UNL     1       0.002  -0.004   0.002  0.00  0.00    +0.032 A 
ATOM      7  N   UNL     1       3.709  -0.347  -0.004  0.00  0.00    -0.226 NA
ATOM      8  C   UNL     1       4.475   0.718  -0.013  0.00  0.00    +0.160 A 
ATOM      9  N   UNL     1       3.699   1.846  -0.019  0.00  0.00    -0.337 N 
ATOM     10  H   UNL     1       4.015   2.763  -0.027  0.00  0.00    +0.167 HD
ENDROOT
BRANCH   8  11
ATOM     11  C   UNL     1       5.951   0.703  -0.017  0.00  0.00    +0.135 A 
ATOM     12  C   UNL     1       6.807  -0.490  -0.011  0.00  0.00    +0.031 A 
ATOM     13  C   UNL     1       6.553  -1.863  -0.002  0.00  0.00    +0.015 A 
ATOM     14  C   UNL     1       7.593  -2.746   0.001  0.00  0.00    +0.039 A 
ATOM     15  C   UNL     1       8.908  -2.291  -0.006  0.00  0.00    +0.125 A 
ATOM     16  C   UNL     1       9.182  -0.940  -0.016  0.00  0.00    +0.066 A 
ATOM     17  C   UNL     1       8.134  -0.023  -0.018  0.00  0.00    +0.069 A 
ATOM     18  N   UNL     1       8.076   1.348  -0.027  0.00  0.00    -0.276 N 
ATOM     19  N   UNL     1       6.738   1.754  -0.031  0.00  0.00    -0.170 NA
ATOM     20  H   UNL     1       8.843   1.942  -0.033  0.00  0.00    +0.189 HD
ATOM     21  F   UNL     1       9.925  -3.181  -0.003  0.00  0.00    -0.205 F 
ENDBRANCH   8  11
BRANCH   6  22
ATOM     22  N   UNL     1      -1.202  -0.716   0.010  0.00  0.00    -0.330 N 
ATOM     23  C   UNL     1      -1.206  -2.181  -0.102  0.00  0.00    +0.103 C 
ATOM     24  C   UNL     1      -2.007  -2.763   1.067  0.00  0.00    +0.004 C 
ATOM     25  C   UNL     1      -3.401  -2.130   1.091  0.00  0.00    -0.066 C 
ATOM     26  C   UNL     1      -3.273  -0.619   1.297  0.00  0.00    +0.004 C 
ATOM     27  C   UNL     1      -2.486  -0.014   0.136  0.00  0.00    +0.103 C 
BRANCH  25  28
ATOM     28  N   UNL     1      -4.183  -2.710   2.191  0.00  0.00    +0.382 N 
ATOM     29  C   UNL     1      -4.298  -4.160   1.996  0.00  0.00    -0.078 C 
ATOM     30  C   UNL     1      -5.042  -4.780   3.180  0.00  0.00    -0.019 C 
ATOM     31  C   UNL     1      -6.441  -4.164   3.277  0.00  0.00    -0.004 C 
ATOM     32  C   UNL     1      -6.310  -2.643   3.405  0.00  0.00    -0.019 C 
ATOM     33  C   UNL     1      -5.519  -2.102   2.212  0.00  0.00    -0.078 C 
ATOM     34  H   UNL     1      -3.717  -2.526   3.067  0.00  0.00    -0.081 HD
ENDBRANCH  25  28
ENDBRANCH   6  22
TORSDOF 3
