REMARK  Name = CHEMBL271849
REMARK  7 active torsions:
REMARK  status: ('A' for Active; 'I' for Inactive)
REMARK    1  A    between atoms: C_1  and  C_2
REMARK    2  A    between atoms: C_2  and  C_3
REMARK    3  A    between atoms: C_2  and  C_4
REMARK    4  A    between atoms: C_4  and  N_5
REMARK    5  A    between atoms: C_9  and  C_30
REMARK    6  A    between atoms: N_24  and  C_29
REMARK    7  A    between atoms: C_30  and  C_32
REMARK                            x       y       z     vdW  Elec       q    Type
REMARK                         _______ _______ _______ _____ _____    ______ ____
ROOT
ATOM      1  N   UNL     1       2.689  -0.423  -1.783  0.00  0.00    -0.339 N 
ATOM      2  C   UNL     1       2.900   0.922  -1.913  0.00  0.00    +0.050 A 
ATOM      3  C   UNL     1       2.010   1.963  -2.190  0.00  0.00    +0.027 A 
ATOM      4  C   UNL     1       2.524   3.232  -2.257  0.00  0.00    +0.014 A 
ATOM      5  C   UNL     1       3.882   3.497  -2.058  0.00  0.00    +0.023 A 
ATOM      6  C   UNL     1       4.793   2.470  -1.780  0.00  0.00    +0.022 A 
ATOM      7  C   UNL     1       4.277   1.182  -1.711  0.00  0.00    +0.009 A 
ATOM      8  C   UNL     1       4.912  -0.113  -1.446  0.00  0.00    +0.013 A 
ATOM      9  C   UNL     1       3.879  -1.071  -1.500  0.00  0.00    +0.054 A 
ATOM     10  C   UNL     1       4.165  -2.414  -1.266  0.00  0.00    -0.014 A 
ATOM     11  C   UNL     1       5.479  -2.799  -1.020  0.00  0.00    +0.003 A 
ATOM     12  C   UNL     1       6.510  -1.848  -0.945  0.00  0.00    +0.050 A 
ATOM     13  C   UNL     1       6.213  -0.503  -1.171  0.00  0.00    -0.008 A 
ATOM     14  C   UNL     1       7.511   0.251  -1.030  0.00  0.00    +0.141 C 
ATOM     15  N   UNL     1       8.537  -0.754  -0.729  0.00  0.00    -0.307 N 
ATOM     16  C   UNL     1       7.951  -1.962  -0.670  0.00  0.00    +0.245 C 
ATOM     17  O   UNL     1       8.532  -3.005  -0.436  0.00  0.00    -0.270 OA
ATOM     18  C   UNL     1       5.751  -4.248  -0.892  0.00  0.00    +0.024 A 
ATOM     19  C   UNL     1       6.830  -4.925  -0.446  0.00  0.00    +0.116 A 
ATOM     20  N   UNL     1       6.538  -6.244  -0.524  0.00  0.00    -0.274 N 
ATOM     21  N   UNL     1       5.239  -6.380  -1.041  0.00  0.00    -0.176 NA
ATOM     22  C   UNL     1       4.764  -5.200  -1.272  0.00  0.00    +0.071 A 
ATOM     23  C   UNL     1       3.441  -4.765  -1.849  0.00  0.00    +0.062 C 
ATOM     24  C   UNL     1       3.044  -3.417  -1.254  0.00  0.00    +0.044 C 
ATOM     25  C   UNL     1       7.426  -7.342  -0.136  0.00  0.00    +0.172 C 
ATOM     26  H   UNL     1       9.479  -0.576  -0.584  0.00  0.00    +0.149 HD
ENDROOT
BRANCH   5  27
ATOM     27  C   UNL     1       4.366   4.889  -2.144  0.00  0.00    +0.194 C 
ATOM     28  O   UNL     1       3.855   5.664  -2.931  0.00  0.00    -0.287 OA
BRANCH  27  29
ATOM     29  C   UNL     1       5.466   5.340  -1.278  0.00  0.00    +0.029 A 
ATOM     30  C   UNL     1       6.067   6.643  -1.435  0.00  0.00    +0.019 A 
ATOM     31  C   UNL     1       7.066   6.935  -0.578  0.00  0.00    +0.046 A 
ATOM     32  S   UNL     1       7.184   5.466   0.420  0.00  0.00    -0.104 S 
ATOM     33  C   UNL     1       5.969   4.541  -0.273  0.00  0.00    +0.057 A 
ENDBRANCH  27  29
ENDBRANCH   5  27
BRANCH   1  34
ATOM     34  C   UNL     1       1.388  -1.083  -1.919  0.00  0.00    +0.125 C 
BRANCH  34  36
ATOM     35  C   UNL     1       2.240  -2.393  -3.868  0.00  0.00    +0.009 C 
ATOM     36  C   UNL     1       1.147  -1.437  -3.388  0.00  0.00    +0.003 C 
ATOM     37  C   UNL     1      -0.219  -2.109  -3.533  0.00  0.00    +0.009 C 
ENDBRANCH  34  36
ENDBRANCH   1  34
TORSDOF 4
