REMARK  Name = CHEMBL231269
REMARK  10 active torsions:
REMARK  status: ('A' for Active; 'I' for Inactive)
REMARK    1  A    between atoms: C_1  and  N_2
REMARK    2  A    between atoms: C_3  and  C_5
REMARK    3  A    between atoms: C_7  and  O_11
REMARK    4  A    between atoms: O_11  and  C_12
REMARK    5  A    between atoms: N_21  and  C_22
REMARK    6  A    between atoms: C_25  and  C_37
REMARK    7  A    between atoms: C_26  and  O_28
REMARK    8  A    between atoms: O_28  and  C_29
REMARK    9  A    between atoms: C_29  and  C_30
REMARK   10  A    between atoms: N_35  and  C_36
REMARK                            x       y       z     vdW  Elec       q    Type
REMARK                         _______ _______ _______ _____ _____    ______ ____
ROOT
ATOM      1  C   UNL     1       3.308  -7.529   0.627  0.00  0.00    +0.131 A 
ATOM      2  C   UNL     1       4.199  -7.141   1.623  0.00  0.00    +0.048 A 
ATOM      3  C   UNL     1       4.421  -7.951   2.714  0.00  0.00    +0.033 A 
ATOM      4  C   UNL     1       3.747  -9.169   2.824  0.00  0.00    +0.091 A 
ATOM      5  C   UNL     1       2.848  -9.558   1.818  0.00  0.00    +0.071 A 
ATOM      6  C   UNL     1       2.630  -8.731   0.726  0.00  0.00    +0.074 A 
ATOM      7  N   UNL     1       2.346 -10.790   2.203  0.00  0.00    -0.326 N 
ATOM      8  C   UNL     1       2.932 -11.111   3.395  0.00  0.00    +0.198 A 
ATOM      9  N   UNL     1       3.754 -10.159   3.758  0.00  0.00    -0.214 NA
ATOM     10  N   UNL     1       2.692 -12.267   4.111  0.00  0.00    -0.285 N 
ATOM     11  H   UNL     1       2.133 -12.964   3.733  0.00  0.00    +0.155 HD
ATOM     12  H   UNL     1       1.698 -11.325   1.718  0.00  0.00    +0.169 HD
ENDROOT
BRANCH  10  13
ATOM     13  C   UNL     1       3.256 -12.434   5.379  0.00  0.00    +0.037 A 
ATOM     14  C   UNL     1       3.580 -11.322   6.148  0.00  0.00    +0.024 A 
ATOM     15  C   UNL     1       4.137 -11.487   7.401  0.00  0.00    +0.018 A 
ATOM     16  C   UNL     1       4.373 -12.757   7.894  0.00  0.00    +0.096 A 
ATOM     17  C   UNL     1       4.052 -13.870   7.131  0.00  0.00    +0.134 A 
ATOM     18  C   UNL     1       3.488 -13.710   5.875  0.00  0.00    +0.069 A 
BRANCH  16  19
ATOM     19  C   UNL     1       4.981 -12.932   9.261  0.00  0.00    +0.421 C 
ATOM     20  F   UNL     1       5.216 -11.676   9.832  0.00  0.00    -0.166 F 
ATOM     21  F   UNL     1       4.102 -13.656  10.074  0.00  0.00    -0.166 F 
ATOM     22  F   UNL     1       6.191 -13.626   9.149  0.00  0.00    -0.166 F 
ENDBRANCH  16  19
BRANCH  17  23
ATOM     23  O   UNL     1       4.285 -15.118   7.617  0.00  0.00    -0.493 OA
BRANCH  23  24
ATOM     24  C   UNL     1       3.929 -16.218   6.777  0.00  0.00    +0.214 C 
BRANCH  24  25
ATOM     25  C   UNL     1       4.264 -17.531   7.488  0.00  0.00    -0.031 C 
ATOM     26  C   UNL     1       5.733 -17.520   7.978  0.00  0.00    -0.014 C 
ATOM     27  C   UNL     1       5.683 -18.545   9.141  0.00  0.00    -0.020 C 
ATOM     28  C   UNL     1       4.288 -18.305   9.757  0.00  0.00    -0.079 C 
ATOM     29  N   UNL     1       3.454 -17.672   8.717  0.00  0.00    +0.382 N 
ATOM     30  C   UNL     1       2.280 -18.511   8.442  0.00  0.00    -0.096 C 
ATOM     31  H   UNL     1       3.153 -16.761   9.031  0.00  0.00    -0.082 HD
ENDBRANCH  24  25
ENDBRANCH  23  24
ENDBRANCH  17  23
ENDBRANCH  10  13
BRANCH   1  32
ATOM     32  O   UNL     1       3.099  -6.720  -0.446  0.00  0.00    -0.456 OA
BRANCH  32  35
ATOM     33  C   UNL     1       6.213  -7.287  -2.257  0.00  0.00    +0.129 A 
ATOM     34  C   UNL     1       5.259  -7.359  -1.248  0.00  0.00    +0.079 A 
ATOM     35  C   UNL     1       4.056  -6.675  -1.407  0.00  0.00    +0.132 A 
ATOM     36  C   UNL     1       3.859  -5.946  -2.576  0.00  0.00    +0.066 A 
ATOM     37  C   UNL     1       4.856  -5.923  -3.535  0.00  0.00    +0.115 A 
ATOM     38  N   UNL     1       5.985  -6.574  -3.354  0.00  0.00    -0.250 NA
BRANCH  33  41
ATOM     39  C   UNL     1       9.701  -8.651  -2.926  0.00  0.00    +0.128 C 
ATOM     40  N   UNL     1       8.430  -7.939  -3.076  0.00  0.00    -0.313 N 
ATOM     41  C   UNL     1       7.499  -8.008  -2.105  0.00  0.00    +0.262 C 
ATOM     42  O   UNL     1       7.713  -8.662  -1.103  0.00  0.00    -0.269 OA
ATOM     43  H   UNL     1       8.258  -7.417  -3.876  0.00  0.00    +0.149 HD
ENDBRANCH  33  41
ENDBRANCH  32  35
ENDBRANCH   1  32
TORSDOF 8
