REMARK  Name = CHEMBL433936
REMARK  10 active torsions:
REMARK  status: ('A' for Active; 'I' for Inactive)
REMARK    1  A    between atoms: C_1  and  O_2
REMARK    2  A    between atoms: O_2  and  C_3
REMARK    3  A    between atoms: C_3  and  C_4
REMARK    4  A    between atoms: C_4  and  O_5
REMARK    5  A    between atoms: O_5  and  C_6
REMARK    6  A    between atoms: C_11  and  O_12
REMARK    7  A    between atoms: O_12  and  C_13
REMARK    8  A    between atoms: C_14  and  N_18
REMARK    9  A    between atoms: N_18  and  C_19
REMARK   10  A    between atoms: C_21  and  O_27
REMARK                            x       y       z     vdW  Elec       q    Type
REMARK                         _______ _______ _______ _____ _____    ______ ____
ROOT
ATOM      1  C   UNL     1      -0.702  -4.235  -2.354  0.00  0.00    +0.164 A 
ATOM      2  C   UNL     1       0.315  -5.059  -1.967  0.00  0.00    +0.075 A 
ATOM      3  C   UNL     1       0.027  -6.353  -1.502  0.00  0.00    +0.052 A 
ATOM      4  C   UNL     1      -1.321  -6.781  -1.443  0.00  0.00    +0.023 A 
ATOM      5  C   UNL     1      -2.346  -5.914  -1.846  0.00  0.00    +0.061 A 
ATOM      6  C   UNL     1      -2.036  -4.660  -2.289  0.00  0.00    +0.162 A 
ATOM      7  C   UNL     1      -1.604  -8.086  -0.974  0.00  0.00    +0.042 A 
ATOM      8  C   UNL     1      -0.537  -8.885  -0.593  0.00  0.00    +0.041 A 
ATOM      9  C   UNL     1       0.757  -8.392  -0.681  0.00  0.00    +0.085 A 
ATOM     10  N   UNL     1       1.008  -7.179  -1.117  0.00  0.00    -0.360 N 
ATOM     11  H   UNL     1       1.928  -6.874  -1.162  0.00  0.00    +0.165 HD
ENDROOT
BRANCH   6  12
ATOM     12  O   UNL     1      -3.031  -3.817  -2.675  0.00  0.00    -0.491 OA
ATOM     13  C   UNL     1      -4.370  -4.309  -2.585  0.00  0.00    +0.277 C 
ENDBRANCH   6  12
BRANCH   7  14
ATOM     14  N   UNL     1      -2.910  -8.550  -0.898  0.00  0.00    -0.312 N 
ATOM     15  H   UNL     1      -3.638  -8.011  -1.244  0.00  0.00    +0.152 HD
BRANCH  14  16
ATOM     16  C   UNL     1      -3.176  -9.798  -0.322  0.00  0.00    +0.071 A 
ATOM     17  C   UNL     1      -2.532 -10.174   0.849  0.00  0.00    +0.073 A 
ATOM     18  C   UNL     1      -2.798 -11.409   1.417  0.00  0.00    +0.137 A 
ATOM     19  C   UNL     1      -3.707 -12.269   0.816  0.00  0.00    +0.085 A 
ATOM     20  C   UNL     1      -4.348 -11.894  -0.351  0.00  0.00    +0.064 A 
ATOM     21  C   UNL     1      -4.090 -10.659  -0.918  0.00  0.00    +0.146 A 
ATOM     22  F   UNL     1      -4.721 -10.293  -2.055  0.00  0.00    -0.203 F 
ATOM     23 CL   UNL     1      -4.039 -13.817   1.528  0.00  0.00    -0.080 Cl
BRANCH  18  24
ATOM     24  O   UNL     1      -2.168 -11.780   2.564  0.00  0.00    -0.505 OA
ATOM     25  H   UNL     1      -2.639 -11.528   3.370  0.00  0.00    +0.292 HD
ENDBRANCH  18  24
ENDBRANCH  14  16
ENDBRANCH   7  14
BRANCH   1  26
ATOM     26  O   UNL     1      -0.418  -2.984  -2.803  0.00  0.00    -0.486 OA
BRANCH  26  27
ATOM     27  C   UNL     1       0.960  -2.608  -2.846  0.00  0.00    +0.257 C 
BRANCH  27  28
ATOM     28  C   UNL     1       1.081  -1.177  -3.374  0.00  0.00    +0.200 C 
BRANCH  28  30
ATOM     29  C   UNL     1       0.531   1.096  -2.849  0.00  0.00    +0.194 C 
ATOM     30  O   UNL     1       0.472  -0.275  -2.448  0.00  0.00    -0.380 OA
ENDBRANCH  28  30
ENDBRANCH  27  28
ENDBRANCH  26  27
ENDBRANCH   1  26
TORSDOF 8
