REMARK  Name = CHEMBL327721
REMARK  7 active torsions:
REMARK  status: ('A' for Active; 'I' for Inactive)
REMARK    1  A    between atoms: C_1  and  N_2
REMARK    2  A    between atoms: N_5  and  C_8
REMARK    3  A    between atoms: C_8  and  C_9
REMARK    4  A    between atoms: C_9  and  C_10
REMARK    5  A    between atoms: C_10  and  N_11
REMARK    6  A    between atoms: C_13  and  C_20
REMARK    7  A    between atoms: C_22  and  C_26
REMARK                            x       y       z     vdW  Elec       q    Type
REMARK                         _______ _______ _______ _____ _____    ______ ____
ROOT
ATOM      1  N   UNL     1       0.659  -6.640   3.486  0.00  0.00    -0.346 N 
ATOM      2  C   UNL     1       1.976  -6.951   3.671  0.00  0.00    +0.095 A 
ATOM      3  C   UNL     1       2.167  -7.402   4.935  0.00  0.00    +0.009 A 
ATOM      4  C   UNL     1       0.854  -7.370   5.599  0.00  0.00    +0.008 A 
ATOM      5  C   UNL     1      -0.052  -6.878   4.643  0.00  0.00    +0.050 A 
ATOM      6  C   UNL     1      -1.391  -6.728   4.986  0.00  0.00    +0.026 A 
ATOM      7  C   UNL     1      -1.817  -7.057   6.254  0.00  0.00    +0.002 A 
ATOM      8  C   UNL     1      -0.922  -7.539   7.198  0.00  0.00    +0.001 A 
ATOM      9  C   UNL     1       0.407  -7.704   6.876  0.00  0.00    +0.010 A 
ENDROOT
BRANCH   3  10
ATOM     10  C   UNL     1       3.450  -7.842   5.533  0.00  0.00    +0.003 A 
ATOM     11  C   UNL     1       4.264  -8.760   4.866  0.00  0.00    +0.020 A 
ATOM     12  C   UNL     1       5.462  -9.141   5.472  0.00  0.00    +0.001 A 
ATOM     13  C   UNL     1       5.798  -8.595   6.710  0.00  0.00    +0.119 A 
ATOM     14  N   UNL     1       5.001  -7.731   7.307  0.00  0.00    -0.262 NA
ATOM     15  C   UNL     1       3.865  -7.341   6.766  0.00  0.00    +0.119 A 
BRANCH  12  16
ATOM     16  C   UNL     1       6.364 -10.114   4.809  0.00  0.00    -0.009 A 
ATOM     17  C   UNL     1       7.558 -10.502   5.410  0.00  0.00    +0.016 A 
ATOM     18  C   UNL     1       8.354 -11.392   4.775  0.00  0.00    +0.046 A 
ATOM     19  S   UNL     1       7.436 -11.720   3.280  0.00  0.00    -0.104 S 
ATOM     20  C   UNL     1       6.040 -10.654   3.595  0.00  0.00    +0.053 A 
ENDBRANCH  12  16
ENDBRANCH   3  10
BRANCH   1  21
ATOM     21  C   UNL     1       0.087  -6.124   2.241  0.00  0.00    +0.120 C 
BRANCH  21  22
ATOM     22  C   UNL     1       0.036  -4.596   2.298  0.00  0.00    +0.003 C 
BRANCH  22  23
ATOM     23  C   UNL     1      -0.562  -4.056   0.998  0.00  0.00    -0.077 C 
BRANCH  23  28
ATOM     24  C   UNL     1      -0.018   1.465   0.010  0.00  0.00    +0.104 C 
ATOM     25  N   UNL     1       0.002  -0.004   0.002  0.00  0.00    -0.309 NA
ATOM     26  C   UNL     1      -1.361  -0.549  -0.076  0.00  0.00    +0.065 C 
ATOM     27  C   UNL     1      -1.293  -2.076  -0.143  0.00  0.00    -0.063 C 
ATOM     28  N   UNL     1      -0.611  -2.589   1.053  0.00  0.00    +0.381 N 
ATOM     29  C   UNL     1       0.757  -2.055   1.104  0.00  0.00    -0.063 C 
ATOM     30  C   UNL     1       0.707  -0.528   1.181  0.00  0.00    +0.065 C 
ATOM     31  H   UNL     1      -1.115  -2.300   1.878  0.00  0.00    -0.082 HD
ENDBRANCH  23  28
ENDBRANCH  22  23
ENDBRANCH  21  22
ENDBRANCH   1  21
TORSDOF 6
