REMARK  Name = CHEMBL115480
REMARK  6 active torsions:
REMARK  status: ('A' for Active; 'I' for Inactive)
REMARK    1  A    between atoms: C_4  and  C_7
REMARK    2  A    between atoms: C_14  and  C_16
REMARK    3  A    between atoms: N_19  and  C_23
REMARK    4  A    between atoms: C_23  and  C_24
REMARK    5  A    between atoms: C_24  and  C_25
REMARK    6  A    between atoms: C_25  and  N_26
REMARK                            x       y       z     vdW  Elec       q    Type
REMARK                         _______ _______ _______ _____ _____    ______ ____
ROOT
ATOM      1  C   UNL     1       5.999  -4.822   2.891  0.00  0.00    -0.008 A 
ATOM      2  C   UNL     1       7.308  -5.232   2.553  0.00  0.00    +0.026 A 
ATOM      3  C   UNL     1       7.896  -6.232   3.244  0.00  0.00    +0.089 A 
ATOM      4  N   UNL     1       7.247  -6.854   4.263  0.00  0.00    -0.315 N 
ATOM      5  C   UNL     1       5.999  -6.494   4.616  0.00  0.00    +0.252 A 
ATOM      6  O   UNL     1       5.437  -7.069   5.535  0.00  0.00    -0.268 OA
ATOM      7  C   UNL     1       5.345  -5.458   3.936  0.00  0.00    +0.079 A 
ENDROOT
BRANCH   1  15
ATOM      8  C   UNL     1       3.697  -0.687  -0.038  0.00  0.00    +0.046 A 
ATOM      9  C   UNL     1       4.768  -0.449  -0.907  0.00  0.00    +0.145 A 
ATOM     10  N   UNL     1       5.740  -1.281  -0.621  0.00  0.00    -0.173 NA
ATOM     11  N   UNL     1       5.347  -2.097   0.446  0.00  0.00    -0.221 N 
ATOM     12  C   UNL     1       4.080  -1.728   0.816  0.00  0.00    +0.163 A 
ATOM     13  N   UNL     1       3.451  -2.344   1.824  0.00  0.00    -0.235 NA
ATOM     14  C   UNL     1       4.030  -3.314   2.489  0.00  0.00    +0.123 A 
ATOM     15  C   UNL     1       5.337  -3.726   2.145  0.00  0.00    +0.019 A 
ATOM     16  C   UNL     1       5.981  -3.105   1.109  0.00  0.00    +0.124 A 
BRANCH   8  20
ATOM     17  C   UNL     1      -0.017   1.379   0.010  0.00  0.00    +0.000 A 
ATOM     18  C   UNL     1       1.169   2.093   0.002  0.00  0.00    +0.001 A 
ATOM     19  C   UNL     1       2.377   1.428  -0.013  0.00  0.00    +0.008 A 
ATOM     20  C   UNL     1       2.403   0.033  -0.021  0.00  0.00    -0.013 A 
ATOM     21  C   UNL     1       1.205  -0.680  -0.013  0.00  0.00    +0.008 A 
ATOM     22  C   UNL     1       0.002  -0.004   0.002  0.00  0.00    +0.001 A 
ENDBRANCH   8  20
ENDBRANCH   1  15
BRANCH   4  23
ATOM     23  C   UNL     1       7.917  -7.935   4.989  0.00  0.00    +0.123 C 
BRANCH  23  24
ATOM     24  C   UNL     1       8.690  -7.351   6.173  0.00  0.00    +0.003 C 
BRANCH  24  25
ATOM     25  C   UNL     1       9.390  -8.480   6.932  0.00  0.00    -0.077 C 
BRANCH  25  26
ATOM     26  N   UNL     1      10.133  -7.920   8.069  0.00  0.00    +0.380 N 
ATOM     27  C   UNL     1      11.207  -7.052   7.569  0.00  0.00    -0.079 C 
ATOM     28  C   UNL     1      11.933  -6.402   8.749  0.00  0.00    -0.019 C 
ATOM     29  C   UNL     1      12.530  -7.495   9.639  0.00  0.00    -0.004 C 
ATOM     30  C   UNL     1      11.411  -8.438  10.094  0.00  0.00    -0.019 C 
ATOM     31  C   UNL     1      10.705  -9.012   8.864  0.00  0.00    -0.079 C 
ATOM     32  H   UNL     1       9.506  -7.378   8.645  0.00  0.00    -0.082 HD
ENDBRANCH  25  26
ENDBRANCH  24  25
ENDBRANCH  23  24
ENDBRANCH   4  23
TORSDOF 6
