REMARK  Name = CHEMBL205893
REMARK  4 active torsions:
REMARK  status: ('A' for Active; 'I' for Inactive)
REMARK    1  A    between atoms: C_1  and  N_2
REMARK    2  A    between atoms: N_5  and  C_8
REMARK    3  A    between atoms: C_15  and  C_17
REMARK    4  A    between atoms: C_18  and  N_28
REMARK                            x       y       z     vdW  Elec       q    Type
REMARK                         _______ _______ _______ _____ _____    ______ ____
ROOT
ATOM      1  C   UNL     1      -0.997  -3.571   1.819  0.00  0.00    +0.032 A 
ATOM      2  C   UNL     1      -2.313  -4.014   1.708  0.00  0.00    +0.025 A 
ATOM      3  C   UNL     1      -2.777  -5.019   2.507  0.00  0.00    +0.032 A 
ATOM      4  C   UNL     1      -1.929  -5.615   3.446  0.00  0.00    +0.090 A 
ATOM      5  C   UNL     1      -0.600  -5.170   3.560  0.00  0.00    +0.068 A 
ATOM      6  C   UNL     1      -0.139  -4.151   2.739  0.00  0.00    +0.051 A 
ATOM      7  N   UNL     1      -0.019  -5.935   4.555  0.00  0.00    -0.338 N 
ATOM      8  C   UNL     1      -0.979  -6.801   5.012  0.00  0.00    +0.146 A 
ATOM      9  N   UNL     1      -2.099  -6.608   4.355  0.00  0.00    -0.227 NA
ATOM     10  H   UNL     1       0.896  -5.870   4.871  0.00  0.00    +0.167 HD
ENDROOT
BRANCH   8  11
ATOM     11  C   UNL     1      -0.782  -7.800   6.077  0.00  0.00    +0.103 A 
ATOM     12  C   UNL     1      -1.792  -8.715   6.376  0.00  0.00    +0.050 A 
ATOM     13  C   UNL     1      -1.544  -9.688   7.447  0.00  0.00    +0.023 A 
ATOM     14  C   UNL     1      -2.496 -10.642   7.816  0.00  0.00    +0.031 A 
ATOM     15  C   UNL     1      -2.187 -11.522   8.831  0.00  0.00    +0.111 A 
ATOM     16  N   UNL     1      -1.020 -11.472   9.448  0.00  0.00    -0.261 NA
ATOM     17  C   UNL     1      -0.091 -10.592   9.138  0.00  0.00    +0.137 A 
ATOM     18  C   UNL     1      -0.311  -9.664   8.126  0.00  0.00    +0.069 A 
ATOM     19  N   UNL     1       0.646  -8.733   7.782  0.00  0.00    -0.320 N 
ATOM     20  C   UNL     1       0.436  -7.840   6.800  0.00  0.00    +0.262 A 
ATOM     21  O   UNL     1       1.314  -7.039   6.528  0.00  0.00    -0.267 OA
ATOM     22  H   UNL     1       1.492  -8.725   8.256  0.00  0.00    +0.169 HD
BRANCH  12  23
ATOM     23  N   UNL     1      -2.982  -8.706   5.690  0.00  0.00    -0.357 N 
ATOM     24  H   UNL     1      -3.101  -8.111   4.933  0.00  0.00    +0.142 HD
ATOM     25  H   UNL     1      -3.704  -9.293   5.963  0.00  0.00    +0.142 HD
ENDBRANCH  12  23
ENDBRANCH   8  11
BRANCH   1  30
ATOM     26  C   UNL     1      -0.053   1.510   0.060  0.00  0.00    -0.096 C 
ATOM     27  N   UNL     1      -0.030   0.041   0.049  0.00  0.00    +0.380 N 
ATOM     28  C   UNL     1      -1.407  -0.468   0.048  0.00  0.00    -0.060 C 
ATOM     29  C   UNL     1      -1.386  -1.995  -0.079  0.00  0.00    +0.086 C 
ATOM     30  N   UNL     1      -0.538  -2.540   0.993  0.00  0.00    -0.333 N 
ATOM     31  C   UNL     1       0.806  -1.969   1.171  0.00  0.00    +0.086 C 
ATOM     32  C   UNL     1       0.681  -0.444   1.239  0.00  0.00    -0.060 C 
ATOM     33  H   UNL     1       0.446  -0.280  -0.780  0.00  0.00    -0.082 HD
ENDBRANCH   1  30
TORSDOF 3
