REMARK  Name = CHEMBL501751
REMARK  6 active torsions:
REMARK  status: ('A' for Active; 'I' for Inactive)
REMARK    1  A    between atoms: C_4  and  C_7
REMARK    2  A    between atoms: C_7  and  N_21
REMARK    3  A    between atoms: C_12  and  N_18
REMARK    4  A    between atoms: N_21  and  C_22
REMARK    5  A    between atoms: C_25  and  C_28
REMARK    6  A    between atoms: C_28  and  N_29
REMARK                            x       y       z     vdW  Elec       q    Type
REMARK                         _______ _______ _______ _____ _____    ______ ____
ROOT
ATOM      1  C   UNL     1       3.714  -0.677  -0.319  0.00  0.00    +0.051 C 
ATOM      2  C   UNL     1       3.210  -1.559   0.628  0.00  0.00    +0.068 C 
ATOM      3  C   UNL     1       1.998  -2.397   0.511  0.00  0.00    +0.010 A 
ATOM      4  C   UNL     1       1.043  -2.571  -0.485  0.00  0.00    +0.013 A 
ATOM      5  C   UNL     1      -0.000  -3.453  -0.286  0.00  0.00    +0.033 A 
ATOM      6  C   UNL     1      -0.096  -4.161   0.901  0.00  0.00    +0.128 A 
ATOM      7  C   UNL     1       0.846  -3.995   1.896  0.00  0.00    +0.056 A 
ATOM      8  C   UNL     1       1.903  -3.113   1.714  0.00  0.00    +0.044 A 
ATOM      9  N   UNL     1       2.973  -2.751   2.521  0.00  0.00    -0.281 N 
ATOM     10  C   UNL     1       3.755  -1.847   1.907  0.00  0.00    +0.251 C 
ATOM     11  O   UNL     1       4.767  -1.353   2.373  0.00  0.00    -0.270 OA
ATOM     12  H   UNL     1       3.136  -3.106   3.409  0.00  0.00    +0.155 HD
ENDROOT
BRANCH   1  16
ATOM     13  C   UNL     1       1.478   0.183  -3.822  0.00  0.00    +0.000 A 
ATOM     14  C   UNL     1       0.881   0.298  -2.579  0.00  0.00    +0.001 A 
ATOM     15  C   UNL     1       1.601   0.020  -1.436  0.00  0.00    +0.010 A 
ATOM     16  C   UNL     1       2.937  -0.379  -1.536  0.00  0.00    -0.003 A 
ATOM     17  C   UNL     1       3.533  -0.493  -2.795  0.00  0.00    +0.010 A 
ATOM     18  C   UNL     1       2.800  -0.211  -3.929  0.00  0.00    +0.001 A 
ENDBRANCH   1  16
BRANCH   6  19
ATOM     19  N   UNL     1      -1.220  -5.103   1.104  0.00  0.00    +0.056 N 
ATOM     20  O   UNL     1      -2.048  -5.252   0.236  0.00  0.00    -0.126 OA
ATOM     21  O   UNL     1      -1.309  -5.724   2.138  0.00  0.00    -0.126 OA
ENDBRANCH   6  19
BRANCH   1  22
ATOM     22  N   UNL     1       4.935  -0.084  -0.122  0.00  0.00    -0.313 N 
ATOM     23  H   UNL     1       5.729  -0.631  -0.020  0.00  0.00    +0.152 HD
BRANCH  22  24
ATOM     24  C   UNL     1       5.034   1.309  -0.068  0.00  0.00    +0.031 A 
ATOM     25  C   UNL     1       3.884   2.088  -0.028  0.00  0.00    +0.023 A 
ATOM     26  C   UNL     1       3.986   3.464   0.025  0.00  0.00    +0.003 A 
ATOM     27  C   UNL     1       5.231   4.067   0.038  0.00  0.00    -0.064 A 
ATOM     28  C   UNL     1       6.377   3.295  -0.002  0.00  0.00    +0.003 A 
ATOM     29  C   UNL     1       6.283   1.918  -0.049  0.00  0.00    +0.023 A 
BRANCH  27  30
ATOM     30  C   UNL     1       5.338   5.569   0.096  0.00  0.00    -0.043 C 
BRANCH  30  31
ATOM     31  N   UNL     1       5.384   6.003   1.498  0.00  0.00    +0.382 N 
ATOM     32  C   UNL     1       4.114   5.671   2.154  0.00  0.00    -0.078 C 
ATOM     33  C   UNL     1       4.186   6.047   3.636  0.00  0.00    -0.019 C 
ATOM     34  C   UNL     1       4.449   7.551   3.762  0.00  0.00    -0.004 C 
ATOM     35  C   UNL     1       5.738   7.898   3.011  0.00  0.00    -0.019 C 
ATOM     36  C   UNL     1       5.608   7.453   1.553  0.00  0.00    -0.078 C 
ATOM     37  H   UNL     1       6.139   5.529   1.972  0.00  0.00    -0.081 HD
ENDBRANCH  30  31
ENDBRANCH  27  30
ENDBRANCH  22  24
ENDBRANCH   1  22
TORSDOF 6
