REMARK  Name = CHEMBL462175
REMARK  8 active torsions:
REMARK  status: ('A' for Active; 'I' for Inactive)
REMARK    1  A    between atoms: C_1  and  N_2
REMARK    2  A    between atoms: C_5  and  O_21
REMARK    3  A    between atoms: C_12  and  C_14
REMARK    4  A    between atoms: O_21  and  C_22
REMARK    5  A    between atoms: C_29  and  O_34
REMARK    6  A    between atoms: C_30  and  O_32
REMARK    7  A    between atoms: O_32  and  C_33
REMARK    8  A    between atoms: O_34  and  C_35
REMARK                            x       y       z     vdW  Elec       q    Type
REMARK                         _______ _______ _______ _____ _____    ______ ____
ROOT
ATOM      1  C   UNL     1      -0.196   1.373   0.057  0.00  0.00    +0.173 C 
ATOM      2  N   UNL     1      -0.090  -0.088   0.024  0.00  0.00    -0.265 N 
ATOM      3  C   UNL     1      -0.035  -0.855  -1.112  0.00  0.00    +0.074 A 
ATOM      4  C   UNL     1      -0.056  -0.561  -2.473  0.00  0.00    +0.074 A 
ATOM      5  C   UNL     1       0.018  -1.587  -3.395  0.00  0.00    +0.131 A 
ATOM      6  C   UNL     1       0.115  -2.913  -2.973  0.00  0.00    +0.047 A 
ATOM      7  C   UNL     1       0.138  -3.218  -1.645  0.00  0.00    +0.017 A 
ATOM      8  C   UNL     1       0.064  -2.196  -0.694  0.00  0.00    +0.042 A 
ATOM      9  C   UNL     1       0.062  -2.170   0.770  0.00  0.00    +0.155 A 
ATOM     10  N   UNL     1      -0.024  -0.921   1.145  0.00  0.00    -0.155 NA
ATOM     11  N   UNL     1       0.143  -3.281   1.615  0.00  0.00    -0.263 N 
ATOM     12  C   UNL     1       0.131  -3.114   2.952  0.00  0.00    +0.268 C 
ATOM     13  O   UNL     1       0.050  -1.996   3.424  0.00  0.00    -0.268 OA
ATOM     14  H   UNL     1       0.208  -4.173   1.239  0.00  0.00    +0.157 HD
ENDROOT
BRANCH  12  15
ATOM     15  C   UNL     1       0.217  -4.291   3.847  0.00  0.00    +0.127 A 
ATOM     16  C   UNL     1       0.199  -4.111   5.228  0.00  0.00    +0.053 A 
ATOM     17  C   UNL     1       0.280  -5.223   6.053  0.00  0.00    +0.045 A 
ATOM     18  C   UNL     1       0.376  -6.477   5.466  0.00  0.00    +0.040 A 
ATOM     19  C   UNL     1       0.389  -6.580   4.085  0.00  0.00    +0.113 A 
ATOM     20  N   UNL     1       0.305  -5.508   3.326  0.00  0.00    -0.250 NA
ATOM     21 CL   UNL     1       0.261  -5.051   7.781  0.00  0.00    -0.083 Cl
ENDBRANCH  12  15
BRANCH   5  22
ATOM     22  O   UNL     1      -0.003  -1.302  -4.723  0.00  0.00    -0.455 OA
BRANCH  22  23
ATOM     23  C   UNL     1      -1.087  -1.690  -5.440  0.00  0.00    +0.139 A 
ATOM     24  C   UNL     1      -2.193  -2.243  -4.818  0.00  0.00    +0.064 A 
ATOM     25  C   UNL     1      -3.288  -2.631  -5.579  0.00  0.00    +0.086 A 
ATOM     26  N   UNL     1      -3.309  -2.490  -6.883  0.00  0.00    -0.360 N 
ATOM     27  C   UNL     1      -2.275  -1.964  -7.549  0.00  0.00    +0.054 A 
ATOM     28  C   UNL     1      -1.123  -1.538  -6.844  0.00  0.00    +0.044 A 
ATOM     29  C   UNL     1      -0.042  -0.981  -7.545  0.00  0.00    +0.063 A 
ATOM     30  C   UNL     1      -0.113  -0.850  -8.901  0.00  0.00    +0.162 A 
ATOM     31  C   UNL     1      -1.254  -1.265  -9.602  0.00  0.00    +0.163 A 
ATOM     32  C   UNL     1      -2.315  -1.821  -8.947  0.00  0.00    +0.075 A 
ATOM     33  H   UNL     1      -4.095  -2.774  -7.377  0.00  0.00    +0.165 HD
BRANCH  31  34
ATOM     34  O   UNL     1      -1.300  -1.123 -10.953  0.00  0.00    -0.491 OA
ATOM     35  C   UNL     1      -2.489  -1.564 -11.611  0.00  0.00    +0.277 C 
ENDBRANCH  31  34
BRANCH  30  36
ATOM     36  O   UNL     1       0.935  -0.310  -9.580  0.00  0.00    -0.491 OA
ATOM     37  C   UNL     1       2.068   0.094  -8.809  0.00  0.00    +0.277 C 
ENDBRANCH  30  36
ENDBRANCH  22  23
ENDBRANCH   5  22
TORSDOF 5
