REMARK  Name = CHEMBL272670
REMARK  5 active torsions:
REMARK  status: ('A' for Active; 'I' for Inactive)
REMARK    1  A    between atoms: C_1  and  N_2
REMARK    2  A    between atoms: C_5  and  O_9
REMARK    3  A    between atoms: O_9  and  C_10
REMARK    4  A    between atoms: C_19  and  C_20
REMARK    5  A    between atoms: N_22  and  C_23
REMARK                            x       y       z     vdW  Elec       q    Type
REMARK                         _______ _______ _______ _____ _____    ______ ____
ROOT
ATOM      1  C   UNL     1       2.965  -0.805   5.181  0.00  0.00    +0.131 A 
ATOM      2  C   UNL     1       3.003  -2.201   5.136  0.00  0.00    +0.047 A 
ATOM      3  C   UNL     1       3.588  -2.917   6.136  0.00  0.00    +0.013 A 
ATOM      4  C   UNL     1       4.162  -2.248   7.226  0.00  0.00    -0.006 A 
ATOM      5  C   UNL     1       4.126  -0.833   7.276  0.00  0.00    -0.014 A 
ATOM      6  C   UNL     1       3.520  -0.122   6.227  0.00  0.00    +0.054 A 
ATOM      7  C   UNL     1       4.702  -0.163   8.370  0.00  0.00    +0.008 A 
ATOM      8  C   UNL     1       5.290  -0.872   9.374  0.00  0.00    +0.001 A 
ATOM      9  C   UNL     1       5.335  -2.260   9.343  0.00  0.00    +0.014 A 
ATOM     10  C   UNL     1       4.779  -2.963   8.284  0.00  0.00    +0.045 A 
ENDROOT
BRANCH  10  11
ATOM     11  C   UNL     1       4.830  -4.436   8.258  0.00  0.00    +0.249 C 
ATOM     12  O   UNL     1       4.436  -5.041   7.279  0.00  0.00    -0.270 OA
ATOM     13  N   UNL     1       5.314  -5.112   9.318  0.00  0.00    -0.281 N 
ATOM     14  H   UNL     1       5.687  -4.630  10.072  0.00  0.00    +0.155 HD
BRANCH  13  15
ATOM     15  C   UNL     1       5.279  -6.511   9.331  0.00  0.00    +0.034 A 
ATOM     16  C   UNL     1       5.052  -7.190  10.522  0.00  0.00    +0.025 A 
ATOM     17  C   UNL     1       5.017  -8.570  10.532  0.00  0.00    +0.022 A 
ATOM     18  C   UNL     1       5.207  -9.277   9.358  0.00  0.00    +0.041 A 
ATOM     19  C   UNL     1       5.434  -8.603   8.170  0.00  0.00    +0.022 A 
ATOM     20  C   UNL     1       5.464  -7.223   8.153  0.00  0.00    +0.025 A 
ATOM     21 CL   UNL     1       5.163 -11.012   9.374  0.00  0.00    -0.084 Cl
ENDBRANCH  13  15
ENDBRANCH  10  11
BRANCH   1  22
ATOM     22  O   UNL     1       2.374  -0.117   4.169  0.00  0.00    -0.438 OA
BRANCH  22  27
ATOM     23  C   UNL     1      -1.014   2.222   1.246  0.00  0.00    +0.127 C 
ATOM     24  N   UNL     1      -1.735   1.407   2.227  0.00  0.00    -0.332 N 
ATOM     25  C   UNL     1      -1.031   0.655   3.155  0.00  0.00    +0.125 A 
ATOM     26  C   UNL     1       0.362   0.671   3.167  0.00  0.00    +0.111 A 
ATOM     27  C   UNL     1       1.020  -0.099   4.117  0.00  0.00    +0.225 A 
ATOM     28  N   UNL     1       0.303  -0.820   4.975  0.00  0.00    -0.201 NA
ATOM     29  C   UNL     1      -1.014  -0.810   4.932  0.00  0.00    +0.227 A 
ATOM     30  N   UNL     1      -1.676  -0.089   4.051  0.00  0.00    -0.221 NA
ATOM     31  H   UNL     1      -2.705   1.394   2.228  0.00  0.00    +0.147 HD
ENDBRANCH  22  27
ENDBRANCH   1  22
TORSDOF 4
