REMARK  Name = CHEMBL205142
REMARK  9 active torsions:
REMARK  status: ('A' for Active; 'I' for Inactive)
REMARK    1  A    between atoms: C_1  and  C_2
REMARK    2  A    between atoms: C_10  and  O_13
REMARK    3  A    between atoms: O_13  and  C_14
REMARK    4  A    between atoms: C_16  and  C_33
REMARK    5  A    between atoms: C_17  and  O_23
REMARK    6  A    between atoms: O_23  and  C_24
REMARK    7  A    between atoms: C_24  and  C_25
REMARK    8  A    between atoms: C_25  and  C_26
REMARK    9  A    between atoms: C_26  and  N_27
REMARK                            x       y       z     vdW  Elec       q    Type
REMARK                         _______ _______ _______ _____ _____    ______ ____
ROOT
ATOM      1  C   UNL     1       0.204  -6.885  -0.474  0.00  0.00    +0.248 A 
ATOM      2  C   UNL     1       0.336  -8.148  -1.091  0.00  0.00    +0.134 A 
ATOM      3  C   UNL     1       0.374  -8.570  -2.407  0.00  0.00    +0.023 A 
ATOM      4  C   UNL     1       0.524  -9.960  -2.385  0.00  0.00    +0.144 A 
ATOM      5  C   UNL     1       0.574 -10.355  -1.082  0.00  0.00    +0.159 A 
ATOM      6  N   UNL     1       0.461  -9.265  -0.287  0.00  0.00    -0.229 N 
ATOM      7  N   UNL     1       0.450  -9.089   1.104  0.00  0.00    -0.155 NA
ATOM      8  C   UNL     1       0.325  -7.892   1.609  0.00  0.00    +0.247 A 
ATOM      9  N   UNL     1       0.208  -6.807   0.845  0.00  0.00    -0.198 NA
ATOM     10  C   UNL     1       0.273  -7.698  -3.631  0.00  0.00    +0.050 C 
ENDROOT
BRANCH   1  11
ATOM     11  O   UNL     1       0.079  -5.766  -1.225  0.00  0.00    -0.433 OA
BRANCH  11  21
ATOM     12  C   UNL     1       2.374   0.363   2.172  0.00  0.00    +0.063 C 
ATOM     13  C   UNL     1       1.680  -0.800   1.512  0.00  0.00    +0.014 A 
ATOM     14  C   UNL     1       2.298  -1.865   0.979  0.00  0.00    +0.033 A 
ATOM     15  C   UNL     1       1.254  -2.747   0.449  0.00  0.00    +0.039 A 
ATOM     16  C   UNL     1       0.031  -2.108   0.720  0.00  0.00    +0.050 A 
ATOM     17  N   UNL     1       0.324  -0.929   1.372  0.00  0.00    -0.358 N 
ATOM     18  H   UNL     1      -0.332  -0.286   1.683  0.00  0.00    +0.166 HD
ATOM     19  C   UNL     1      -1.159  -2.713   0.330  0.00  0.00    +0.030 A 
ATOM     20  C   UNL     1      -1.135  -3.929  -0.316  0.00  0.00    +0.051 A 
ATOM     21  C   UNL     1       0.073  -4.565  -0.586  0.00  0.00    +0.166 A 
ATOM     22  C   UNL     1       1.268  -3.980  -0.207  0.00  0.00    +0.175 A 
ATOM     23  F   UNL     1       2.441  -4.598  -0.470  0.00  0.00    -0.201 F 
ENDBRANCH  11  21
ENDBRANCH   1  11
BRANCH   4  24
ATOM     24  O   UNL     1       0.605 -10.774  -3.473  0.00  0.00    -0.490 OA
BRANCH  24  25
ATOM     25  C   UNL     1       0.756 -12.173  -3.226  0.00  0.00    +0.227 C 
BRANCH  25  26
ATOM     26  C   UNL     1       0.829 -12.921  -4.559  0.00  0.00    +0.022 C 
BRANCH  26  27
ATOM     27  C   UNL     1       0.991 -14.420  -4.295  0.00  0.00    -0.076 C 
BRANCH  27  28
ATOM     28  N   UNL     1       1.060 -15.138  -5.575  0.00  0.00    +0.380 N 
ATOM     29  C   UNL     1      -0.217 -14.996  -6.283  0.00  0.00    -0.079 C 
ATOM     30  C   UNL     1      -0.123 -15.674  -7.652  0.00  0.00    -0.019 C 
ATOM     31  C   UNL     1       0.194 -17.160  -7.460  0.00  0.00    -0.004 C 
ATOM     32  C   UNL     1       1.489 -17.295  -6.655  0.00  0.00    -0.019 C 
ATOM     33  C   UNL     1       1.336 -16.557  -5.323  0.00  0.00    -0.079 C 
ATOM     34  H   UNL     1       1.801 -14.748  -6.138  0.00  0.00    -0.082 HD
ENDBRANCH  27  28
ENDBRANCH  26  27
ENDBRANCH  25  26
ENDBRANCH  24  25
ENDBRANCH   4  24
TORSDOF 7
