REMARK  Name = CHEMBL595615
REMARK  10 active torsions:
REMARK  status: ('A' for Active; 'I' for Inactive)
REMARK    1  A    between atoms: C_1  and  N_2
REMARK    2  A    between atoms: N_5  and  C_8
REMARK    3  A    between atoms: C_8  and  C_9
REMARK    4  A    between atoms: C_9  and  C_10
REMARK    5  A    between atoms: C_10  and  O_11
REMARK    6  A    between atoms: O_11  and  C_12
REMARK    7  A    between atoms: C_17  and  O_18
REMARK    8  A    between atoms: O_18  and  C_19
REMARK    9  A    between atoms: N_24  and  C_25
REMARK   10  A    between atoms: C_28  and  C_31
REMARK                            x       y       z     vdW  Elec       q    Type
REMARK                         _______ _______ _______ _____ _____    ______ ____
ROOT
ATOM      1  C   UNL     1       1.344  -8.002   3.282  0.00  0.00    +0.164 A 
ATOM      2  C   UNL     1       0.720  -8.800   2.350  0.00  0.00    +0.078 A 
ATOM      3  C   UNL     1       0.642 -10.182   2.566  0.00  0.00    +0.080 A 
ATOM      4  C   UNL     1       1.208 -10.736   3.741  0.00  0.00    +0.044 A 
ATOM      5  C   UNL     1       1.837  -9.902   4.673  0.00  0.00    +0.062 A 
ATOM      6  C   UNL     1       1.907  -8.558   4.439  0.00  0.00    +0.162 A 
ATOM      7  C   UNL     1       1.114 -12.135   3.931  0.00  0.00    +0.134 A 
ATOM      8  N   UNL     1       0.502 -12.855   3.000  0.00  0.00    -0.220 NA
ATOM      9  C   UNL     1      -0.012 -12.293   1.917  0.00  0.00    +0.223 A 
ATOM     10  N   UNL     1       0.045 -11.003   1.688  0.00  0.00    -0.235 NA
ATOM     11  N   UNL     1       1.646 -12.735   5.055  0.00  0.00    -0.299 N 
ATOM     12  H   UNL     1       2.017 -12.189   5.766  0.00  0.00    +0.154 HD
ENDROOT
BRANCH  11  13
ATOM     13  C   UNL     1       1.650 -14.125   5.168  0.00  0.00    +0.032 A 
ATOM     14  C   UNL     1       1.853 -14.913   4.040  0.00  0.00    +0.024 A 
ATOM     15  C   UNL     1       1.858 -16.286   4.148  0.00  0.00    +0.012 A 
ATOM     16  C   UNL     1       1.659 -16.887   5.393  0.00  0.00    +0.007 A 
ATOM     17  C   UNL     1       1.455 -16.094   6.524  0.00  0.00    +0.012 A 
ATOM     18  C   UNL     1       1.457 -14.721   6.410  0.00  0.00    +0.024 A 
BRANCH  16  19
ATOM     19  C   UNL     1       1.663 -18.360   5.512  0.00  0.00    +0.109 A 
ATOM     20  N   UNL     1       1.841 -19.264   4.573  0.00  0.00    -0.239 NA
ATOM     21  C   UNL     1       1.820 -20.587   4.828  0.00  0.00    +0.079 A 
ATOM     22  C   UNL     1       1.996 -21.656   3.916  0.00  0.00    +0.029 A 
ATOM     23  C   UNL     1       1.944 -22.947   4.339  0.00  0.00    +0.002 A 
ATOM     24  C   UNL     1       1.719 -23.270   5.670  0.00  0.00    +0.001 A 
ATOM     25  C   UNL     1       1.543 -22.256   6.593  0.00  0.00    +0.017 A 
ATOM     26  C   UNL     1       1.593 -20.948   6.177  0.00  0.00    +0.040 A 
ATOM     27  S   UNL     1       1.435 -19.367   6.971  0.00  0.00    -0.067 S 
ENDBRANCH  16  19
ENDBRANCH  11  13
BRANCH   6  28
ATOM     28  O   UNL     1       2.523  -7.750   5.343  0.00  0.00    -0.491 OA
ATOM     29  C   UNL     1       3.076  -8.376   6.502  0.00  0.00    +0.277 C 
ENDBRANCH   6  28
BRANCH   1  30
ATOM     30  O   UNL     1       1.421  -6.662   3.075  0.00  0.00    -0.488 OA
BRANCH  30  31
ATOM     31  C   UNL     1       0.829  -6.155   1.877  0.00  0.00    +0.227 C 
BRANCH  31  32
ATOM     32  C   UNL     1       1.014  -4.637   1.819  0.00  0.00    +0.022 C 
BRANCH  32  33
ATOM     33  C   UNL     1       0.380  -4.095   0.536  0.00  0.00    -0.075 C 
BRANCH  33  38
ATOM     34  C   UNL     1       1.647   1.198  -0.922  0.00  0.00    +0.104 C 
ATOM     35  N   UNL     1       1.446  -0.254  -0.818  0.00  0.00    -0.309 NA
ATOM     36  C   UNL     1       0.016  -0.583  -0.736  0.00  0.00    +0.065 C 
ATOM     37  C   UNL     1      -0.153  -2.103  -0.688  0.00  0.00    -0.063 C 
ATOM     38  N   UNL     1       0.558  -2.638   0.481  0.00  0.00    +0.381 N 
ATOM     39  C   UNL     1       1.988  -2.323   0.373  0.00  0.00    -0.063 C 
ATOM     40  C   UNL     1       2.175  -0.804   0.334  0.00  0.00    +0.065 C 
ATOM     41  H   UNL     1       0.184  -2.222   1.321  0.00  0.00    -0.082 HD
ENDBRANCH  33  38
ENDBRANCH  32  33
ENDBRANCH  31  32
ENDBRANCH  30  31
ENDBRANCH   1  30
TORSDOF 8
