REMARK  Name = CHEMBL327721
REMARK  7 active torsions:
REMARK  status: ('A' for Active; 'I' for Inactive)
REMARK    1  A    between atoms: C_1  and  N_2
REMARK    2  A    between atoms: N_5  and  C_8
REMARK    3  A    between atoms: C_8  and  C_9
REMARK    4  A    between atoms: C_9  and  C_10
REMARK    5  A    between atoms: C_10  and  N_11
REMARK    6  A    between atoms: C_13  and  C_20
REMARK    7  A    between atoms: C_22  and  C_26
REMARK                            x       y       z     vdW  Elec       q    Type
REMARK                         _______ _______ _______ _____ _____    ______ ____
ROOT
ATOM      1  N   UNL     1       0.430  -6.471   3.876  0.00  0.00    -0.346 N 
ATOM      2  C   UNL     1       1.728  -6.818   4.114  0.00  0.00    +0.095 A 
ATOM      3  C   UNL     1       1.872  -7.192   5.409  0.00  0.00    +0.009 A 
ATOM      4  C   UNL     1       0.546  -7.068   6.035  0.00  0.00    +0.008 A 
ATOM      5  C   UNL     1      -0.317  -6.606   5.026  0.00  0.00    +0.050 A 
ATOM      6  C   UNL     1      -1.657  -6.384   5.324  0.00  0.00    +0.026 A 
ATOM      7  C   UNL     1      -2.126  -6.614   6.599  0.00  0.00    +0.002 A 
ATOM      8  C   UNL     1      -1.272  -7.067   7.595  0.00  0.00    +0.001 A 
ATOM      9  C   UNL     1       0.057  -7.302   7.319  0.00  0.00    +0.010 A 
ENDROOT
BRANCH   3  10
ATOM     10  C   UNL     1       3.123  -7.640   6.066  0.00  0.00    +0.003 A 
ATOM     11  C   UNL     1       3.916  -8.630   5.481  0.00  0.00    +0.020 A 
ATOM     12  C   UNL     1       5.083  -9.015   6.141  0.00  0.00    +0.001 A 
ATOM     13  C   UNL     1       5.411  -8.403   7.350  0.00  0.00    +0.119 A 
ATOM     14  N   UNL     1       4.635  -7.473   7.870  0.00  0.00    -0.262 NA
ATOM     15  C   UNL     1       3.528  -7.076   7.276  0.00  0.00    +0.119 A 
BRANCH  12  16
ATOM     16  C   UNL     1       5.963 -10.062   5.565  0.00  0.00    -0.009 A 
ATOM     17  C   UNL     1       7.126 -10.454   6.221  0.00  0.00    +0.016 A 
ATOM     18  C   UNL     1       7.902 -11.412   5.664  0.00  0.00    +0.046 A 
ATOM     19  S   UNL     1       7.007 -11.803   4.170  0.00  0.00    -0.104 S 
ATOM     20  C   UNL     1       5.646 -10.666   4.381  0.00  0.00    +0.053 A 
ENDBRANCH  12  16
ENDBRANCH   3  10
BRANCH   1  21
ATOM     21  C   UNL     1      -0.093  -6.015   2.586  0.00  0.00    +0.123 C 
BRANCH  21  22
ATOM     22  C   UNL     1      -0.086  -4.485   2.544  0.00  0.00    +0.037 C 
BRANCH  22  23
ATOM     23  C   UNL     1      -0.632  -4.009   1.196  0.00  0.00    +0.086 C 
BRANCH  23  28
ATOM     24  C   UNL     1      -0.018   1.465   0.010  0.00  0.00    -0.096 C 
ATOM     25  N   UNL     1       0.002  -0.004   0.002  0.00  0.00    +0.379 N 
ATOM     26  C   UNL     1      -1.376  -0.512   0.011  0.00  0.00    -0.064 C 
ATOM     27  C   UNL     1      -1.356  -2.042  -0.017  0.00  0.00    +0.066 C 
ATOM     28  N   UNL     1      -0.624  -2.541   1.156  0.00  0.00    -0.306 NA
ATOM     29  C   UNL     1       0.750  -2.020   1.175  0.00  0.00    +0.066 C 
ATOM     30  C   UNL     1       0.713  -0.490   1.192  0.00  0.00    -0.064 C 
ATOM     31  H   UNL     1       0.475  -0.329  -0.828  0.00  0.00    -0.082 HD
ENDBRANCH  23  28
ENDBRANCH  22  23
ENDBRANCH  21  22
ENDBRANCH   1  21
TORSDOF 6
