REMARK  Name = CHEMBL374690
REMARK  10 active torsions:
REMARK  status: ('A' for Active; 'I' for Inactive)
REMARK    1  A    between atoms: C_1  and  N_2
REMARK    2  A    between atoms: N_2  and  C_3
REMARK    3  A    between atoms: C_4  and  C_6
REMARK    4  A    between atoms: C_6  and  O_7
REMARK    5  A    between atoms: O_7  and  C_8
REMARK    6  A    between atoms: C_20  and  C_21
REMARK    7  A    between atoms: C_23  and  C_26
REMARK    8  A    between atoms: C_27  and  C_28
REMARK    9  A    between atoms: C_28  and  O_29
REMARK   10  A    between atoms: O_29  and  C_30
REMARK                            x       y       z     vdW  Elec       q    Type
REMARK                         _______ _______ _______ _____ _____    ______ ____
ROOT
ATOM      1  C   UNL     1       0.031  -3.993  -2.712  0.00  0.00    +0.122 A 
ATOM      2  C   UNL     1       0.047  -4.845  -1.616  0.00  0.00    +0.046 A 
ATOM      3  C   UNL     1       0.064  -6.211  -1.798  0.00  0.00    +0.014 A 
ATOM      4  C   UNL     1       0.065  -6.744  -3.090  0.00  0.00    +0.004 A 
ATOM      5  C   UNL     1       0.048  -5.881  -4.186  0.00  0.00    -0.030 A 
ATOM      6  C   UNL     1       0.026  -4.518  -3.999  0.00  0.00    +0.050 A 
ATOM      7  C   UNL     1       0.054  -6.742  -5.425  0.00  0.00    +0.075 C 
ATOM      8  C   UNL     1       0.075  -8.169  -4.933  0.00  0.00    +0.010 A 
ATOM      9  C   UNL     1       0.082  -8.143  -3.571  0.00  0.00    +0.070 A 
ATOM     10  N   UNL     1       0.101  -9.440  -3.140  0.00  0.00    -0.276 N 
ATOM     11  H   UNL     1       0.109  -9.733  -2.215  0.00  0.00    +0.189 HD
ATOM     12  N   UNL     1       0.106 -10.270  -4.267  0.00  0.00    -0.173 NA
ATOM     13  C   UNL     1       0.091  -9.512  -5.343  0.00  0.00    +0.097 A 
ENDROOT
BRANCH  13  14
ATOM     14  C   UNL     1       0.090  -9.993  -6.747  0.00  0.00    +0.011 A 
ATOM     15  C   UNL     1       0.783 -11.140  -7.102  0.00  0.00    +0.034 A 
ATOM     16  C   UNL     1       0.755 -11.547  -8.409  0.00  0.00    +0.063 A 
ATOM     17  S   UNL     1      -0.268 -10.298  -9.170  0.00  0.00    -0.088 S 
ATOM     18  C   UNL     1      -0.600  -9.316  -7.717  0.00  0.00    +0.056 A 
BRANCH  16  19
ATOM     19  C   UNL     1       1.384 -12.684  -9.010  0.00  0.00    -0.056 C 
ATOM     20  C   UNL     1       1.900 -13.616  -9.504  0.00  0.00    -0.056 C 
BRANCH  20  21
ATOM     21  C   UNL     1       2.547 -14.785 -10.122  0.00  0.00    +0.318 C 
BRANCH  21  22
ATOM     22  O   UNL     1       2.243 -14.815 -11.518  0.00  0.00    -0.480 OA
BRANCH  22  23
ATOM     23  C   UNL     1       2.767 -15.838 -12.242  0.00  0.00    +0.122 A 
ATOM     24  C   UNL     1       3.554 -16.797 -11.621  0.00  0.00    +0.046 A 
ATOM     25  C   UNL     1       4.085 -17.837 -12.359  0.00  0.00    +0.004 A 
ATOM     26  C   UNL     1       3.833 -17.922 -13.716  0.00  0.00    +0.000 A 
ATOM     27  C   UNL     1       3.050 -16.968 -14.337  0.00  0.00    +0.004 A 
ATOM     28  C   UNL     1       2.511 -15.929 -13.602  0.00  0.00    +0.046 A 
ENDBRANCH  22  23
ENDBRANCH  21  22
ENDBRANCH  20  21
ENDBRANCH  16  19
ENDBRANCH  13  14
BRANCH   1  29
ATOM     29  O   UNL     1       0.014  -2.647  -2.527  0.00  0.00    -0.483 OA
BRANCH  29  30
ATOM     30  C   UNL     1       0.021  -2.178  -1.177  0.00  0.00    +0.324 C 
BRANCH  30  34
ATOM     31  C   UNL     1      -0.018   1.461   0.010  0.00  0.00    +0.131 C 
ATOM     32  N   UNL     1       0.002  -0.004   0.002  0.00  0.00    -0.305 N 
ATOM     33  C   UNL     1       0.024  -0.743   1.267  0.00  0.00    +0.131 C 
ATOM     34  C   UNL     1       0.000  -0.672  -1.169  0.00  0.00    +0.253 C 
ATOM     35  O   UNL     1      -0.018  -0.060  -2.216  0.00  0.00    -0.272 OA
ENDBRANCH  30  34
ENDBRANCH  29  30
ENDBRANCH   1  29
TORSDOF 8
