REMARK  Name = CHEMBL496575
REMARK  8 active torsions:
REMARK  status: ('A' for Active; 'I' for Inactive)
REMARK    1  A    between atoms: C_1  and  C_2
REMARK    2  A    between atoms: C_2  and  C_3
REMARK    3  A    between atoms: C_3  and  C_4
REMARK    4  A    between atoms: C_4  and  C_5
REMARK    5  A    between atoms: C_6  and  C_14
REMARK    6  A    between atoms: N_20  and  C_21
REMARK    7  A    between atoms: C_24  and  N_27
REMARK    8  A    between atoms: N_30  and  C_33
REMARK                            x       y       z     vdW  Elec       q    Type
REMARK                         _______ _______ _______ _____ _____    ______ ____
ROOT
ATOM      1  C   UNL     1       3.844  -2.670   1.439  0.00  0.00    +0.080 A 
ATOM      2  C   UNL     1       5.209  -2.869   1.687  0.00  0.00    +0.048 A 
ATOM      3  C   UNL     1       6.100  -2.676   0.650  0.00  0.00    +0.116 A 
ATOM      4  N   UNL     1       5.644  -2.312  -0.539  0.00  0.00    -0.223 NA
ATOM      5  C   UNL     1       4.347  -2.130  -0.747  0.00  0.00    +0.220 A 
ATOM      6  N   UNL     1       3.457  -2.309   0.216  0.00  0.00    -0.214 NA
ATOM      7  N   UNL     1       3.913  -1.748  -2.005  0.00  0.00    -0.284 N 
ATOM      8  H   UNL     1       2.979  -1.530  -2.150  0.00  0.00    +0.155 HD
ENDROOT
BRANCH   1  10
ATOM      9  C   UNL     1       1.828  -1.979   2.871  0.00  0.00    +0.075 A 
ATOM     10  C   UNL     1       2.850  -2.864   2.515  0.00  0.00    +0.051 A 
ATOM     11  C   UNL     1       2.754  -3.971   3.372  0.00  0.00    +0.097 A 
ATOM     12  C   UNL     1       3.488  -5.157   3.499  0.00  0.00    +0.032 A 
ATOM     13  C   UNL     1       3.131  -6.058   4.461  0.00  0.00    +0.024 A 
ATOM     14  C   UNL     1       2.047  -5.790   5.302  0.00  0.00    +0.135 A 
ATOM     15  N   UNL     1       1.361  -4.683   5.185  0.00  0.00    -0.157 NA
ATOM     16  N   UNL     1       1.696  -3.735   4.211  0.00  0.00    -0.149 N 
ATOM     17  N   UNL     1       1.152  -2.491   3.873  0.00  0.00    -0.153 NA
BRANCH   9  18
ATOM     18  C   UNL     1       1.551  -0.650   2.215  0.00  0.00    +0.058 C 
BRANCH  18  19
ATOM     19  C   UNL     1       2.349   0.445   2.925  0.00  0.00    +0.006 C 
BRANCH  19  21
ATOM     20  C   UNL     1       2.865   2.889   2.970  0.00  0.00    +0.004 C 
ATOM     21  C   UNL     1       2.068   1.794   2.260  0.00  0.00    -0.003 C 
ENDBRANCH  19  21
ENDBRANCH  18  19
ENDBRANCH   9  18
ENDBRANCH   1  10
BRANCH   7  22
ATOM     22  C   UNL     1       4.822  -1.677  -3.069  0.00  0.00    +0.034 A 
ATOM     23  C   UNL     1       5.871  -2.583  -3.147  0.00  0.00    +0.025 A 
ATOM     24  C   UNL     1       6.767  -2.513  -4.195  0.00  0.00    +0.025 A 
ATOM     25  C   UNL     1       6.619  -1.537  -5.171  0.00  0.00    +0.030 A 
ATOM     26  C   UNL     1       5.570  -0.630  -5.093  0.00  0.00    +0.025 A 
ATOM     27  C   UNL     1       4.671  -0.704  -4.048  0.00  0.00    +0.025 A 
BRANCH  25  28
ATOM     28  N   UNL     1       7.528  -1.465  -6.233  0.00  0.00    -0.327 N 
ATOM     29  C   UNL     1       7.324  -0.516  -7.338  0.00  0.00    +0.120 C 
ATOM     30  C   UNL     1       8.617   0.282  -7.538  0.00  0.00    +0.103 C 
ATOM     31  N   UNL     1       9.740  -0.647  -7.717  0.00  0.00    -0.302 NA
ATOM     32  C   UNL     1       9.949  -1.467  -6.516  0.00  0.00    +0.103 C 
ATOM     33  C   UNL     1       8.715  -2.333  -6.271  0.00  0.00    +0.120 C 
ATOM     34  C   UNL     1      10.967   0.073  -8.082  0.00  0.00    +0.105 C 
ENDBRANCH  25  28
ENDBRANCH   7  22
TORSDOF 6
