REMARK  Name = CHEMBL26931
REMARK  7 active torsions:
REMARK  status: ('A' for Active; 'I' for Inactive)
REMARK    1  A    between atoms: C_1  and  N_2
REMARK    2  A    between atoms: C_6  and  C_8
REMARK    3  A    between atoms: C_8  and  O_9
REMARK    4  A    between atoms: O_9  and  C_10
REMARK    5  A    between atoms: C_15  and  O_16
REMARK    6  A    between atoms: O_16  and  C_17
REMARK    7  A    between atoms: N_22  and  C_23
REMARK                            x       y       z     vdW  Elec       q    Type
REMARK                         _______ _______ _______ _____ _____    ______ ____
ROOT
ATOM      1  C   UNL     1       1.443   0.675   6.103  0.00  0.00    +0.164 A 
ATOM      2  C   UNL     1       2.545  -0.150   6.136  0.00  0.00    +0.078 A 
ATOM      3  C   UNL     1       2.955  -0.705   7.355  0.00  0.00    +0.080 A 
ATOM      4  C   UNL     1       2.228  -0.407   8.535  0.00  0.00    +0.044 A 
ATOM      5  C   UNL     1       1.111   0.434   8.473  0.00  0.00    +0.062 A 
ATOM      6  C   UNL     1       0.732   0.969   7.275  0.00  0.00    +0.162 A 
ATOM      7  C   UNL     1       2.667  -0.982   9.752  0.00  0.00    +0.134 A 
ATOM      8  N   UNL     1       3.735  -1.769   9.725  0.00  0.00    -0.220 NA
ATOM      9  C   UNL     1       4.383  -2.018   8.598  0.00  0.00    +0.223 A 
ATOM     10  N   UNL     1       4.022  -1.514   7.442  0.00  0.00    -0.235 NA
ATOM     11  N   UNL     1       2.001  -0.730  10.934  0.00  0.00    -0.297 N 
ATOM     12  H   UNL     1       1.170  -0.231  10.926  0.00  0.00    +0.154 HD
ENDROOT
BRANCH  11  13
ATOM     13  C   UNL     1       2.527  -1.195  12.146  0.00  0.00    +0.068 A 
ATOM     14  C   UNL     1       3.865  -1.553  12.231  0.00  0.00    +0.027 A 
ATOM     15  C   UNL     1       4.381  -2.012  13.428  0.00  0.00    +0.017 A 
ATOM     16  C   UNL     1       3.567  -2.114  14.541  0.00  0.00    +0.021 A 
ATOM     17  C   UNL     1       2.232  -1.758  14.461  0.00  0.00    +0.055 A 
ATOM     18  C   UNL     1       1.710  -1.293  13.267  0.00  0.00    +0.145 A 
ATOM     19  F   UNL     1       0.409  -0.940  13.190  0.00  0.00    -0.204 F 
ATOM     20 BR   UNL     1       4.278  -2.743  16.177  0.00  0.00    -0.050 Br
ENDBRANCH  11  13
BRANCH   6  21
ATOM     21  O   UNL     1      -0.349   1.791   7.217  0.00  0.00    -0.491 OA
ATOM     22  C   UNL     1      -1.032   2.052   8.445  0.00  0.00    +0.277 C 
ENDBRANCH   6  21
BRANCH   1  23
ATOM     23  O   UNL     1       1.043   1.214   4.921  0.00  0.00    -0.488 OA
BRANCH  23  24
ATOM     24  C   UNL     1       1.808   0.876   3.762  0.00  0.00    +0.231 C 
BRANCH  24  30
ATOM     25  C   UNL     1       1.382   3.409   0.412  0.00  0.00    -0.096 C 
ATOM     26  N   UNL     1       1.526   1.972   0.140  0.00  0.00    +0.378 N 
ATOM     27  C   UNL     1       0.209   1.399  -0.165  0.00  0.00    -0.079 C 
ATOM     28  C   UNL     1      -0.749   1.666   0.998  0.00  0.00    -0.018 C 
ATOM     29  C   UNL     1      -0.193   1.021   2.270  0.00  0.00    +0.003 C 
ATOM     30  C   UNL     1       1.211   1.572   2.537  0.00  0.00    +0.010 C 
ATOM     31  C   UNL     1       2.097   1.308   1.318  0.00  0.00    -0.072 C 
ATOM     32  H   UNL     1       2.139   1.840  -0.650  0.00  0.00    -0.082 HD
ENDBRANCH  24  30
ENDBRANCH  23  24
ENDBRANCH   1  23
TORSDOF 5
