REMARK  Name = CHEMBL401153
REMARK  5 active torsions:
REMARK  status: ('A' for Active; 'I' for Inactive)
REMARK    1  A    between atoms: C_3  and  N_8
REMARK    2  A    between atoms: C_9  and  C_11
REMARK    3  A    between atoms: C_16  and  N_17
REMARK    4  A    between atoms: N_17  and  C_18
REMARK    5  A    between atoms: C_18  and  C_19
REMARK                            x       y       z     vdW  Elec       q    Type
REMARK                         _______ _______ _______ _____ _____    ______ ____
ROOT
ATOM      1  C   UNL     1       6.019   2.227   0.162  0.00  0.00    +0.077 A 
ATOM      2  C   UNL     1       6.005   3.621   0.281  0.00  0.00    +0.018 A 
ATOM      3  C   UNL     1       7.215   4.284   0.381  0.00  0.00    +0.021 A 
ATOM      4  C   UNL     1       8.394   3.559   0.360  0.00  0.00    +0.113 A 
ATOM      5  N   UNL     1       8.386   2.245   0.246  0.00  0.00    -0.240 NA
ATOM      6  C   UNL     1       7.256   1.560   0.154  0.00  0.00    +0.131 A 
ENDROOT
BRANCH   1   8
ATOM      7  N   UNL     1       3.585   2.126  -0.043  0.00  0.00    -0.281 N 
ATOM      8  C   UNL     1       4.759   1.470   0.053  0.00  0.00    +0.252 C 
ATOM      9  O   UNL     1       4.777   0.254   0.050  0.00  0.00    -0.270 OA
ATOM     10  H   UNL     1       3.575   3.094  -0.106  0.00  0.00    +0.155 HD
BRANCH   7  13
ATOM     11  C   UNL     1       0.067   1.235   0.543  0.00  0.00    +0.003 A 
ATOM     12  C   UNL     1       1.253   1.943   0.555  0.00  0.00    +0.023 A 
ATOM     13  C   UNL     1       2.383   1.412  -0.053  0.00  0.00    +0.035 A 
ATOM     14  C   UNL     1       2.317   0.170  -0.671  0.00  0.00    +0.043 A 
ATOM     15  C   UNL     1       1.128  -0.534  -0.679  0.00  0.00    +0.043 A 
ATOM     16  C   UNL     1       0.003  -0.001  -0.072  0.00  0.00    +0.020 A 
ATOM     17 CL   UNL     1       1.043  -2.086  -1.452  0.00  0.00    -0.083 Cl
ENDBRANCH   7  13
ENDBRANCH   1   8
BRANCH   6  18
ATOM     18  N   UNL     1       7.295   0.182   0.044  0.00  0.00    -0.324 N 
ATOM     19  H   UNL     1       6.470  -0.328   0.050  0.00  0.00    +0.148 HD
BRANCH  18  20
ATOM     20  C   UNL     1       8.581  -0.507  -0.081  0.00  0.00    +0.138 C 
BRANCH  20  21
ATOM     21  C   UNL     1       8.348  -1.992  -0.185  0.00  0.00    -0.028 A 
ATOM     22  C   UNL     1       8.297  -2.784   0.952  0.00  0.00    +0.025 A 
ATOM     23  C   UNL     1       8.081  -4.142   0.818  0.00  0.00    +0.111 A 
ATOM     24  N   UNL     1       7.924  -4.686  -0.373  0.00  0.00    -0.263 NA
ATOM     25  C   UNL     1       7.966  -3.964  -1.476  0.00  0.00    +0.111 A 
ATOM     26  C   UNL     1       8.172  -2.598  -1.419  0.00  0.00    +0.025 A 
ENDBRANCH  20  21
ENDBRANCH  18  20
ENDBRANCH   6  18
TORSDOF 5
