REMARK  Name = CHEMBL204163
REMARK  3 active torsions:
REMARK  status: ('A' for Active; 'I' for Inactive)
REMARK    1  A    between atoms: C_2  and  N_15
REMARK    2  A    between atoms: C_11  and  N_14
REMARK    3  A    between atoms: C_19  and  C_21
REMARK                            x       y       z     vdW  Elec       q    Type
REMARK                         _______ _______ _______ _____ _____    ______ ____
ROOT
ATOM      1  C   UNL     1      -2.308   1.265   0.260  0.00  0.00    +0.085 A 
ATOM      2  C   UNL     1      -2.182  -0.120   0.273  0.00  0.00    +0.129 A 
ATOM      3  N   UNL     1      -0.981  -0.662   0.078  0.00  0.00    -0.222 NA
ATOM      4  C   UNL     1       0.077   0.095  -0.125  0.00  0.00    +0.199 A 
ATOM      5  N   UNL     1      -0.000   1.410  -0.144  0.00  0.00    -0.334 N 
ATOM      6  C   UNL     1      -1.165   2.028   0.036  0.00  0.00    +0.103 A 
ATOM      7  N   UNL     1      -1.238   3.413   0.013  0.00  0.00    -0.317 N 
ATOM      8  C   UNL     1       0.015   4.185  -0.090  0.00  0.00    +0.106 C 
ATOM      9  C   UNL     1       0.021   5.409   0.843  0.00  0.00    +0.017 C 
ATOM     10  C   UNL     1      -0.591   5.049   2.175  0.00  0.00    -0.015 C 
ATOM     11  C   UNL     1      -2.086   5.354   2.143  0.00  0.00    -0.074 C 
ATOM     12  C   UNL     1      -2.912   4.278   1.575  0.00  0.00    +0.003 C 
ATOM     13  C   UNL     1      -2.539   4.040   0.086  0.00  0.00    +0.105 C 
ATOM     14  H   UNL     1       0.801   1.935  -0.297  0.00  0.00    +0.168 HD
ENDROOT
BRANCH   2  15
ATOM     15  N   UNL     1      -3.292  -0.926   0.487  0.00  0.00    -0.279 N 
ATOM     16  C   UNL     1      -3.183  -2.299   0.369  0.00  0.00    +0.165 A 
ATOM     17  N   UNL     1      -2.098  -3.015   0.134  0.00  0.00    -0.232 NA
ATOM     18  C   UNL     1      -2.146  -4.322   0.048  0.00  0.00    +0.139 A 
ATOM     19  C   UNL     1      -3.394  -4.904   0.215  0.00  0.00    +0.110 A 
ATOM     20  S   UNL     1      -4.399  -3.455   0.497  0.00  0.00    -0.042 S 
ATOM     21  H   UNL     1      -4.145  -0.526   0.719  0.00  0.00    +0.155 HD
BRANCH  19  22
ATOM     22  C   UNL     1      -3.771  -6.285   0.177  0.00  0.00    +0.108 C 
ATOM     23  N   UNL     1      -4.070  -7.381   0.147  0.00  0.00    -0.190 NA
ENDBRANCH  19  22
ENDBRANCH   2  15
BRANCH  11  24
ATOM     24  N   UNL     1      -2.538   5.614   3.517  0.00  0.00    +0.380 N 
ATOM     25  H   UNL     1      -2.033   6.402   3.894  0.00  0.00    -0.090 HD
ATOM     26  H   UNL     1      -3.526   5.817   3.513  0.00  0.00    -0.090 HD
ATOM     27  H   UNL     1      -2.364   4.800   4.087  0.00  0.00    -0.090 HD
ENDBRANCH  11  24
TORSDOF 3
