REMARK  Name = CHEMBL1098213
REMARK  6 active torsions:
REMARK  status: ('A' for Active; 'I' for Inactive)
REMARK    1  A    between atoms: C_3  and  O_26
REMARK    2  A    between atoms: C_6  and  N_7
REMARK    3  A    between atoms: N_7  and  C_8
REMARK    4  A    between atoms: C_13  and  C_14
REMARK    5  A    between atoms: N_16  and  C_17
REMARK    6  A    between atoms: O_26  and  C_27
REMARK                            x       y       z     vdW  Elec       q    Type
REMARK                         _______ _______ _______ _____ _____    ______ ____
ROOT
ATOM      1  N   UNL     1      -1.189  -0.670  -0.202  0.00  0.00    -0.314 N 
ATOM      2  H   UNL     1      -2.019  -0.170  -0.223  0.00  0.00    +0.152 HD
ENDROOT
BRANCH   1   8
ATOM      3  C   UNL     1       0.065   1.393  -0.141  0.00  0.00    +0.027 A 
ATOM      4  C   UNL     1       1.274   2.061  -0.152  0.00  0.00    +0.051 A 
ATOM      5  C   UNL     1       2.460   1.348  -0.235  0.00  0.00    +0.164 A 
ATOM      6  C   UNL     1       2.434  -0.040  -0.307  0.00  0.00    +0.167 A 
ATOM      7  C   UNL     1       1.224  -0.709  -0.296  0.00  0.00    +0.065 A 
ATOM      8  C   UNL     1       0.036   0.006  -0.213  0.00  0.00    +0.034 A 
ATOM      9  F   UNL     1       3.590  -0.734  -0.389  0.00  0.00    -0.202 F 
BRANCH   5  10
ATOM     10  O   UNL     1       3.650   2.007  -0.245  0.00  0.00    -0.452 OA
BRANCH  10  11
ATOM     11  C   UNL     1       4.259   2.202  -1.442  0.00  0.00    +0.141 A 
ATOM     12  C   UNL     1       3.636   1.841  -2.630  0.00  0.00    +0.066 A 
ATOM     13  C   UNL     1       4.290   2.057  -3.830  0.00  0.00    +0.117 A 
ATOM     14  N   UNL     1       5.490   2.597  -3.876  0.00  0.00    -0.237 NA
ATOM     15  C   UNL     1       6.136   2.963  -2.775  0.00  0.00    +0.142 A 
ATOM     16  C   UNL     1       5.534   2.781  -1.518  0.00  0.00    +0.061 A 
ATOM     17  C   UNL     1       6.488   3.286  -0.529  0.00  0.00    +0.032 A 
ATOM     18  C   UNL     1       7.556   3.729  -1.210  0.00  0.00    +0.085 A 
ATOM     19  N   UNL     1       7.365   3.535  -2.553  0.00  0.00    -0.346 N 
ATOM     20  H   UNL     1       8.000   3.776  -3.246  0.00  0.00    +0.167 HD
ENDBRANCH  10  11
ENDBRANCH   5  10
ENDBRANCH   1   8
BRANCH   1  21
ATOM     21  C   UNL     1      -1.215  -2.054  -0.160  0.00  0.00    +0.046 A 
ATOM     22  C   UNL     1      -1.502  -2.801  -1.303  0.00  0.00    +0.043 A 
ATOM     23  C   UNL     1      -1.518  -4.177  -1.220  0.00  0.00    +0.112 A 
ATOM     24  N   UNL     1      -1.267  -4.798  -0.081  0.00  0.00    -0.262 NA
ATOM     25  C   UNL     1      -0.990  -4.144   1.027  0.00  0.00    +0.125 A 
ATOM     26  C   UNL     1      -0.946  -2.749   1.037  0.00  0.00    +0.076 A 
BRANCH  26  27
ATOM     27  C   UNL     1      -0.631  -2.015   2.276  0.00  0.00    +0.252 C 
ATOM     28  O   UNL     1      -0.518  -0.805   2.254  0.00  0.00    -0.270 OA
ATOM     29  N   UNL     1      -0.467  -2.687   3.433  0.00  0.00    -0.279 N 
ATOM     30  H   UNL     1      -0.472  -3.657   3.436  0.00  0.00    +0.155 HD
BRANCH  29  31
ATOM     31  C   UNL     1      -0.291  -1.984   4.632  0.00  0.00    +0.069 A 
ATOM     32  C   UNL     1      -0.929  -0.766   4.824  0.00  0.00    +0.029 A 
ATOM     33  C   UNL     1      -0.753  -0.075   6.007  0.00  0.00    +0.040 A 
ATOM     34  C   UNL     1       0.059  -0.594   7.002  0.00  0.00    +0.126 A 
ATOM     35  C   UNL     1       0.697  -1.808   6.813  0.00  0.00    +0.078 A 
ATOM     36  C   UNL     1       0.520  -2.507   5.633  0.00  0.00    +0.147 A 
ATOM     37  F   UNL     1       1.138  -3.695   5.452  0.00  0.00    -0.203 F 
ATOM     38  F   UNL     1       0.228   0.085   8.157  0.00  0.00    -0.205 F 
ENDBRANCH  29  31
ENDBRANCH  26  27
ENDBRANCH   1  21
TORSDOF 6
