REMARK  Name = CHEMBL456720
REMARK  4 active torsions:
REMARK  status: ('A' for Active; 'I' for Inactive)
REMARK    1  A    between atoms: C_1  and  N_2
REMARK    2  A    between atoms: N_5  and  C_8
REMARK    3  A    between atoms: C_11  and  C_22
REMARK    4  A    between atoms: C_13  and  C_18
REMARK                            x       y       z     vdW  Elec       q    Type
REMARK                         _______ _______ _______ _____ _____    ______ ____
ROOT
ATOM      1  C   UNL     1      -0.972  -3.610   1.777  0.00  0.00    +0.049 A 
ATOM      2  C   UNL     1      -0.130  -4.178   2.716  0.00  0.00    +0.035 A 
ATOM      3  C   UNL     1      -0.640  -5.206   3.523  0.00  0.00    +0.010 A 
ATOM      4  C   UNL     1       0.161  -5.835   4.505  0.00  0.00    -0.008 A 
ATOM      5  C   UNL     1      -0.384  -6.844   5.278  0.00  0.00    +0.021 A 
ATOM      6  C   UNL     1      -1.704  -7.241   5.095  0.00  0.00    +0.057 A 
ATOM      7  C   UNL     1      -2.494  -6.651   4.155  0.00  0.00    +0.040 A 
ATOM      8  C   UNL     1      -1.983  -5.620   3.347  0.00  0.00    +0.072 A 
ATOM      9  N   UNL     1      -2.748  -5.032   2.422  0.00  0.00    -0.253 NA
ATOM     10  C   UNL     1      -2.290  -4.067   1.664  0.00  0.00    +0.134 A 
ENDROOT
BRANCH   1  15
ATOM     11  C   UNL     1      -0.037   1.464  -0.001  0.00  0.00    -0.096 C 
ATOM     12  N   UNL     1      -0.007  -0.004  -0.003  0.00  0.00    +0.380 N 
ATOM     13  C   UNL     1      -1.382  -0.520  -0.013  0.00  0.00    -0.060 C 
ATOM     14  C   UNL     1      -1.353  -2.047  -0.132  0.00  0.00    +0.086 C 
ATOM     15  N   UNL     1      -0.511  -2.583   0.950  0.00  0.00    -0.332 N 
ATOM     16  C   UNL     1       0.829  -2.005   1.136  0.00  0.00    +0.086 C 
ATOM     17  C   UNL     1       0.696  -0.480   1.194  0.00  0.00    -0.060 C 
ATOM     18  H   UNL     1       0.477  -0.328  -0.827  0.00  0.00    -0.082 HD
ENDBRANCH   1  15
BRANCH   4  19
ATOM     19  C   UNL     1       1.568  -5.416   4.704  0.00  0.00    -0.017 A 
ATOM     20  C   UNL     1       2.428  -5.311   3.611  0.00  0.00    +0.008 A 
ATOM     21  C   UNL     1       3.738  -4.920   3.803  0.00  0.00    +0.001 A 
ATOM     22  C   UNL     1       4.198  -4.634   5.075  0.00  0.00    +0.000 A 
ATOM     23  C   UNL     1       3.350  -4.737   6.163  0.00  0.00    +0.001 A 
ATOM     24  C   UNL     1       2.037  -5.120   5.984  0.00  0.00    +0.008 A 
ENDBRANCH   4  19
BRANCH   6  25
ATOM     25  C   UNL     1      -2.271  -8.345   5.950  0.00  0.00    +0.418 C 
ATOM     26  F   UNL     1      -2.837  -7.795   7.105  0.00  0.00    -0.166 F 
ATOM     27  F   UNL     1      -3.253  -9.034   5.232  0.00  0.00    -0.166 F 
ATOM     28  F   UNL     1      -1.247  -9.229   6.309  0.00  0.00    -0.166 F 
ENDBRANCH   6  25
TORSDOF 3
