REMARK  Name = CHEMBL551458
REMARK  4 active torsions:
REMARK  status: ('A' for Active; 'I' for Inactive)
REMARK    1  A    between atoms: C_1  and  N_2
REMARK    2  A    between atoms: C_11  and  C_14
REMARK    3  A    between atoms: N_20  and  S_21
REMARK    4  A    between atoms: S_21  and  C_24
REMARK                            x       y       z     vdW  Elec       q    Type
REMARK                         _______ _______ _______ _____ _____    ______ ____
ROOT
ATOM      1  C   UNL     1      -2.272  -6.704   4.305  0.00  0.00    +0.004 A 
ATOM      2  C   UNL     1      -1.384  -7.238   5.239  0.00  0.00    +0.039 A 
ATOM      3  C   UNL     1      -1.835  -8.260   6.065  0.00  0.00    +0.091 A 
ATOM      4  C   UNL     1      -3.162  -8.714   5.929  0.00  0.00    +0.090 A 
ATOM      5  C   UNL     1      -3.323  -9.776   6.924  0.00  0.00    +0.049 A 
ATOM      6  C   UNL     1      -2.150  -9.896   7.568  0.00  0.00    +0.114 A 
ATOM      7  N   UNL     1      -1.249  -8.998   7.068  0.00  0.00    -0.217 N 
ATOM      8  N   UNL     1      -3.974  -8.175   5.024  0.00  0.00    -0.253 NA
ATOM      9  C   UNL     1      -3.575  -7.204   4.234  0.00  0.00    +0.120 A 
ENDROOT
BRANCH   1  20
ATOM     10  C   UNL     1       1.466  -1.194  -2.466  0.00  0.00    -0.096 C 
ATOM     11  N   UNL     1       0.724  -1.298  -1.203  0.00  0.00    +0.380 N 
ATOM     12  C   UNL     1       1.551  -1.991  -0.207  0.00  0.00    -0.060 C 
ATOM     13  C   UNL     1       0.825  -1.998   1.143  0.00  0.00    +0.088 C 
ATOM     14  N   UNL     1      -0.511  -2.583   0.950  0.00  0.00    -0.320 N 
ATOM     15  C   UNL     1      -1.349  -2.055  -0.138  0.00  0.00    +0.088 C 
ATOM     16  C   UNL     1      -0.520  -2.045  -1.427  0.00  0.00    -0.060 C 
ATOM     17  C   UNL     1      -0.970  -3.604   1.773  0.00  0.00    +0.099 A 
ATOM     18  C   UNL     1      -2.282  -4.053   1.645  0.00  0.00    +0.042 A 
ATOM     19  C   UNL     1      -2.729  -5.069   2.466  0.00  0.00    +0.013 A 
ATOM     20  C   UNL     1      -1.839  -5.611   3.400  0.00  0.00    -0.000 A 
ATOM     21  C   UNL     1      -0.542  -5.111   3.469  0.00  0.00    +0.092 A 
ATOM     22  N   UNL     1      -0.151  -4.143   2.664  0.00  0.00    -0.349 N 
ATOM     23  H   UNL     1       0.759  -3.814   2.728  0.00  0.00    +0.167 HD
ATOM     24  H   UNL     1       0.503  -0.372  -0.867  0.00  0.00    -0.082 HD
ENDBRANCH   1  20
BRANCH   7  25
ATOM     25  S   UNL     1       0.313  -8.825   7.591  0.00  0.00    +0.086 S 
ATOM     26  O   UNL     1       0.516  -7.436   7.809  0.00  0.00    -0.148 OA
ATOM     27  O   UNL     1       0.509  -9.793   8.612  0.00  0.00    -0.148 OA
BRANCH  25  28
ATOM     28  C   UNL     1       1.364  -9.283   6.253  0.00  0.00    +0.142 A 
ATOM     29  C   UNL     1       2.173  -8.363   5.678  0.00  0.00    +0.031 A 
ATOM     30  C   UNL     1       3.022  -8.688   4.613  0.00  0.00    +0.004 A 
ATOM     31  C   UNL     1       3.079  -9.940   4.101  0.00  0.00    +0.033 A 
ATOM     32  C   UNL     1       2.261 -10.960   4.650  0.00  0.00    +0.136 A 
ATOM     33  C   UNL     1       1.370 -10.619   5.776  0.00  0.00    +0.161 A 
ATOM     34  N   UNL     1       0.718 -11.704   6.124  0.00  0.00    -0.047 NA
ATOM     35  O   UNL     1       1.142 -12.759   5.278  0.00  0.00    -0.242 OA
ATOM     36  N   UNL     1       2.100 -12.234   4.375  0.00  0.00    -0.049 NA
ENDBRANCH  25  28
ENDBRANCH   7  25
TORSDOF 3
