REMARK  Name = CHEMBL473332
REMARK  4 active torsions:
REMARK  status: ('A' for Active; 'I' for Inactive)
REMARK    1  A    between atoms: C_3  and  C_9
REMARK    2  A    between atoms: C_12  and  O_26
REMARK    3  A    between atoms: C_13  and  O_25
REMARK    4  A    between atoms: C_21  and  O_24
REMARK                            x       y       z     vdW  Elec       q    Type
REMARK                         _______ _______ _______ _____ _____    ______ ____
ROOT
ATOM      1  C   UNL     1       3.654   2.161  -0.022  0.00  0.00    +0.005 A 
ATOM      2  C   UNL     1       4.457   2.281  -1.241  0.00  0.00    +0.029 A 
ATOM      3  C   UNL     1       4.040   1.681  -2.437  0.00  0.00    +0.061 A 
ATOM      4  C   UNL     1       4.805   1.806  -3.562  0.00  0.00    +0.159 A 
ATOM      5  C   UNL     1       6.002   2.531  -3.524  0.00  0.00    +0.162 A 
ATOM      6  C   UNL     1       6.426   3.128  -2.350  0.00  0.00    +0.096 A 
ATOM      7  C   UNL     1       5.661   3.011  -1.197  0.00  0.00    +0.140 A 
ATOM      8  O   UNL     1       6.067   3.592  -0.050  0.00  0.00    -0.455 OA
ATOM      9  C   UNL     1       5.358   3.507   1.095  0.00  0.00    +0.140 A 
ATOM     10  C   UNL     1       5.829   4.125   2.239  0.00  0.00    +0.101 A 
ATOM     11  C   UNL     1       5.099   4.041   3.428  0.00  0.00    +0.224 A 
ATOM     12  O   UNL     1       5.518   4.589   4.441  0.00  0.00    -0.284 OA
ATOM     13  C   UNL     1       3.879   3.325   3.469  0.00  0.00    +0.164 A 
ATOM     14  C   UNL     1       3.409   2.715   2.349  0.00  0.00    +0.061 A 
ATOM     15  C   UNL     1       4.134   2.798   1.144  0.00  0.00    +0.029 A 
ENDROOT
BRANCH   1  18
ATOM     16  C   UNL     1      -0.017   1.380   0.010  0.00  0.00    +0.002 A 
ATOM     17  C   UNL     1       1.165   2.090   0.002  0.00  0.00    +0.010 A 
ATOM     18  C   UNL     1       2.386   1.409  -0.013  0.00  0.00    +0.003 A 
ATOM     19  C   UNL     1       2.399   0.009  -0.021  0.00  0.00    +0.067 A 
ATOM     20  C   UNL     1       1.206  -0.688  -0.013  0.00  0.00    +0.060 A 
ATOM     21  C   UNL     1       0.002  -0.004   0.002  0.00  0.00    +0.021 A 
ATOM     22 CL   UNL     1       1.217  -2.423  -0.023  0.00  0.00    -0.082 Cl
ATOM     23 CL   UNL     1       3.909  -0.848  -0.041  0.00  0.00    -0.081 Cl
ENDBRANCH   1  18
BRANCH  13  24
ATOM     24  O   UNL     1       3.176   3.248   4.630  0.00  0.00    -0.503 OA
ATOM     25  H   UNL     1       3.588   3.713   5.371  0.00  0.00    +0.292 HD
ENDBRANCH  13  24
BRANCH   5  26
ATOM     26  O   UNL     1       6.754   2.649  -4.648  0.00  0.00    -0.503 OA
ATOM     27  H   UNL     1       6.533   3.418  -5.190  0.00  0.00    +0.292 HD
ENDBRANCH   5  26
BRANCH   4  28
ATOM     28  O   UNL     1       4.402   1.225  -4.724  0.00  0.00    -0.503 OA
ATOM     29  H   UNL     1       3.847   1.792  -5.276  0.00  0.00    +0.292 HD
ENDBRANCH   4  28
TORSDOF 4
