REMARK  Name = CHEMBL601719
REMARK  7 active torsions:
REMARK  status: ('A' for Active; 'I' for Inactive)
REMARK    1  A    between atoms: C_1  and  C_2
REMARK    2  A    between atoms: C_2  and  C_4
REMARK    3  A    between atoms: C_2  and  O_13
REMARK    4  A    between atoms: O_13  and  C_14
REMARK    5  A    between atoms: C_16  and  C_21
REMARK    6  A    between atoms: C_19  and  N_20
REMARK    7  A    between atoms: N_24  and  C_26
REMARK                            x       y       z     vdW  Elec       q    Type
REMARK                         _______ _______ _______ _____ _____    ______ ____
ROOT
ATOM      1  C   UNL     1      -0.032  -0.600   2.304  0.00  0.00    +0.159 A 
ATOM      2  C   UNL     1      -1.399  -0.378   2.296  0.00  0.00    +0.059 A 
ATOM      3  C   UNL     1      -2.102  -0.517   3.497  0.00  0.00    +0.005 A 
ATOM      4  C   UNL     1      -1.409  -0.869   4.650  0.00  0.00    +0.093 A 
ATOM      5  N   UNL     1      -0.106  -1.071   4.620  0.00  0.00    -0.346 N 
ATOM      6  C   UNL     1       0.592  -0.955   3.502  0.00  0.00    +0.136 A 
ATOM      7  H   UNL     1       0.353  -1.315   5.439  0.00  0.00    +0.167 HD
ENDROOT
BRANCH   3   8
ATOM      8  C   UNL     1      -3.569  -0.290   3.541  0.00  0.00    +0.021 A 
ATOM      9  C   UNL     1      -4.389   0.064   2.452  0.00  0.00    +0.143 A 
ATOM     10  N   UNL     1      -5.617   0.172   2.886  0.00  0.00    -0.179 NA
ATOM     11  N   UNL     1      -5.629  -0.106   4.258  0.00  0.00    -0.268 N 
ATOM     12  C   UNL     1      -4.368  -0.392   4.642  0.00  0.00    +0.117 A 
BRANCH  11  13
ATOM     13  C   UNL     1      -6.809  -0.094   5.127  0.00  0.00    +0.104 C 
ATOM     14  C   UNL     1      -6.415   0.406   6.519  0.00  0.00    +0.008 C 
ATOM     15  C   UNL     1      -7.633   0.341   7.442  0.00  0.00    -0.081 C 
ATOM     16  N   UNL     1      -8.108  -1.045   7.535  0.00  0.00    +0.379 N 
ATOM     17  C   UNL     1      -8.555  -1.507   6.215  0.00  0.00    -0.081 C 
ATOM     18  C   UNL     1      -7.372  -1.513   5.245  0.00  0.00    +0.008 C 
ATOM     19  H   UNL     1      -7.358  -1.635   7.861  0.00  0.00    -0.086 HD
ATOM     20  H   UNL     1      -8.878  -1.093   8.185  0.00  0.00    -0.086 HD
ENDBRANCH  11  13
ENDBRANCH   3   8
BRANCH   6  21
ATOM     21  N   UNL     1       1.965  -1.186   3.520  0.00  0.00    -0.342 N 
ATOM     22  H   UNL     1       2.483  -1.099   2.705  0.00  0.00    +0.144 HD
ATOM     23  H   UNL     1       2.404  -1.433   4.349  0.00  0.00    +0.144 HD
ENDBRANCH   6  21
BRANCH   1  24
ATOM     24  O   UNL     1       0.693  -0.477   1.160  0.00  0.00    -0.481 OA
BRANCH  24  26
ATOM     25  C   UNL     1      -0.290   1.265  -0.196  0.00  0.00    +0.057 C 
ATOM     26  C   UNL     1      -0.034  -0.236  -0.046  0.00  0.00    +0.204 C 
BRANCH  26  27
ATOM     27  C   UNL     1       0.767  -0.729  -1.224  0.00  0.00    +0.032 A 
ATOM     28  C   UNL     1       2.120  -0.449  -1.306  0.00  0.00    +0.049 A 
ATOM     29  C   UNL     1       2.856  -0.901  -2.386  0.00  0.00    +0.023 A 
ATOM     30  C   UNL     1       2.242  -1.633  -3.384  0.00  0.00    +0.041 A 
ATOM     31  C   UNL     1       0.889  -1.915  -3.303  0.00  0.00    +0.142 A 
ATOM     32  C   UNL     1       0.152  -1.466  -2.219  0.00  0.00    +0.084 A 
ATOM     33 CL   UNL     1      -1.543  -1.824  -2.113  0.00  0.00    -0.080 Cl
ATOM     34  F   UNL     1       0.288  -2.630  -4.279  0.00  0.00    -0.204 F 
ATOM     35 CL   UNL     1       2.893   0.471  -0.052  0.00  0.00    -0.083 Cl
ENDBRANCH  26  27
ENDBRANCH  24  26
ENDBRANCH   1  24
TORSDOF 6
