REMARK  Name = CHEMBL254280
REMARK  14 active torsions:
REMARK  status: ('A' for Active; 'I' for Inactive)
REMARK    1  A    between atoms: C_1  and  C_2
REMARK    2  A    between atoms: C_3  and  O_33
REMARK    3  A    between atoms: C_7  and  O_11
REMARK    4  A    between atoms: O_11  and  C_12
REMARK    5  A    between atoms: C_15  and  N_19
REMARK    6  A    between atoms: C_20  and  C_22
REMARK    7  A    between atoms: C_22  and  C_23
REMARK    8  A    between atoms: N_25  and  C_26
REMARK    9  A    between atoms: O_33  and  C_34
REMARK   10  A    between atoms: C_34  and  C_35
REMARK   11  A    between atoms: C_35  and  C_36
REMARK   12  A    between atoms: C_36  and  N_37
REMARK   13  A    between atoms: N_37  and  C_38
REMARK   14  A    between atoms: N_37  and  C_39
REMARK                            x       y       z     vdW  Elec       q    Type
REMARK                         _______ _______ _______ _____ _____    ______ ____
ROOT
ATOM      1  C   UNL     1      -0.023   0.927   4.323  0.00  0.00    +0.166 A 
ATOM      2  C   UNL     1      -1.275   0.991   4.917  0.00  0.00    +0.051 A 
ATOM      3  C   UNL     1      -1.384   1.136   6.286  0.00  0.00    +0.027 A 
ATOM      4  C   UNL     1      -0.240   1.220   7.069  0.00  0.00    +0.036 A 
ATOM      5  C   UNL     1       1.013   1.156   6.476  0.00  0.00    +0.065 A 
ATOM      6  C   UNL     1       1.122   1.005   5.106  0.00  0.00    +0.167 A 
ATOM      7  F   UNL     1       2.342   0.938   4.528  0.00  0.00    -0.202 F 
ENDROOT
BRANCH   4   8
ATOM      8  N   UNL     1      -0.352   1.368   8.457  0.00  0.00    -0.285 N 
ATOM      9  C   UNL     1       0.638   0.934   9.263  0.00  0.00    +0.226 C 
ATOM     10  O   UNL     1       1.573   0.318   8.797  0.00  0.00    -0.275 OA
ATOM     11  H   UNL     1      -1.141   1.783   8.839  0.00  0.00    +0.155 HD
BRANCH   9  12
ATOM     12  C   UNL     1       0.583   1.215  10.743  0.00  0.00    +0.192 C 
BRANCH  12  13
ATOM     13  C   UNL     1       1.799   0.628  11.411  0.00  0.00    +0.226 C 
ATOM     14  O   UNL     1       2.628   0.039  10.751  0.00  0.00    -0.275 OA
ATOM     15  N   UNL     1       1.964   0.756  12.742  0.00  0.00    -0.285 N 
ATOM     16  H   UNL     1       1.264   1.157  13.282  0.00  0.00    +0.155 HD
BRANCH  15  17
ATOM     17  C   UNL     1       3.146   0.312  13.347  0.00  0.00    +0.034 A 
ATOM     18  C   UNL     1       3.110  -0.241  14.621  0.00  0.00    +0.026 A 
ATOM     19  C   UNL     1       4.277  -0.678  15.216  0.00  0.00    +0.040 A 
ATOM     20  C   UNL     1       5.483  -0.566  14.543  0.00  0.00    +0.124 A 
ATOM     21  C   UNL     1       5.521  -0.015  13.274  0.00  0.00    +0.040 A 
ATOM     22  C   UNL     1       4.355   0.418  12.673  0.00  0.00    +0.026 A 
ATOM     23  F   UNL     1       6.623  -0.994  15.127  0.00  0.00    -0.205 F 
ENDBRANCH  15  17
ENDBRANCH  12  13
ENDBRANCH   9  12
ENDBRANCH   4   8
BRANCH   1  24
ATOM     24  O   UNL     1       0.084   0.784   2.975  0.00  0.00    -0.433 OA
BRANCH  24  31
ATOM     25  C   UNL     1       0.009   1.662   0.011  0.00  0.00    +0.050 C 
ATOM     26  C   UNL     1       0.105   0.159  -0.018  0.00  0.00    +0.023 A 
ATOM     27  C   UNL     1       0.157  -0.650  -1.157  0.00  0.00    +0.144 A 
ATOM     28  C   UNL     1       0.240  -1.947  -0.746  0.00  0.00    +0.159 A 
ATOM     29  N   UNL     1       0.243  -1.980   0.607  0.00  0.00    -0.229 N 
ATOM     30  C   UNL     1       0.166  -0.683   1.078  0.00  0.00    +0.134 A 
ATOM     31  C   UNL     1       0.161  -0.471   2.473  0.00  0.00    +0.248 A 
ATOM     32  N   UNL     1       0.232  -1.511   3.284  0.00  0.00    -0.198 NA
ATOM     33  C   UNL     1       0.310  -2.756   2.818  0.00  0.00    +0.247 A 
ATOM     34  N   UNL     1       0.311  -3.023   1.541  0.00  0.00    -0.155 NA
BRANCH  27  35
ATOM     35  O   UNL     1       0.128  -0.219  -2.448  0.00  0.00    -0.490 OA
BRANCH  35  36
ATOM     36  C   UNL     1       0.191  -1.218  -3.467  0.00  0.00    +0.227 C 
BRANCH  36  37
ATOM     37  C   UNL     1       0.147  -0.548  -4.842  0.00  0.00    +0.022 C 
BRANCH  37  38
ATOM     38  C   UNL     1       0.215  -1.618  -5.933  0.00  0.00    -0.076 C 
BRANCH  38  39
ATOM     39  N   UNL     1       0.172  -0.974  -7.253  0.00  0.00    +0.376 N 
ATOM     40  C   UNL     1       0.358  -1.989  -8.299  0.00  0.00    -0.097 C 
ATOM     41  C   UNL     1      -1.128  -0.316  -7.435  0.00  0.00    -0.097 C 
ATOM     42  H   UNL     1       0.909  -0.287  -7.317  0.00  0.00    -0.083 HD
ENDBRANCH  38  39
ENDBRANCH  37  38
ENDBRANCH  36  37
ENDBRANCH  35  36
ENDBRANCH  27  35
ENDBRANCH  24  31
ENDBRANCH   1  24
TORSDOF 11
