REMARK  Name = CHEMBL456720
REMARK  4 active torsions:
REMARK  status: ('A' for Active; 'I' for Inactive)
REMARK    1  A    between atoms: C_1  and  N_2
REMARK    2  A    between atoms: N_5  and  C_8
REMARK    3  A    between atoms: C_11  and  C_22
REMARK    4  A    between atoms: C_13  and  C_18
REMARK                            x       y       z     vdW  Elec       q    Type
REMARK                         _______ _______ _______ _____ _____    ______ ____
ROOT
ATOM      1  C   UNL     1      -0.927  -3.700   1.573  0.00  0.00    +0.049 A 
ATOM      2  C   UNL     1      -0.105  -4.284   2.519  0.00  0.00    +0.035 A 
ATOM      3  C   UNL     1      -0.618  -5.353   3.270  0.00  0.00    +0.010 A 
ATOM      4  C   UNL     1       0.164  -6.000   4.256  0.00  0.00    -0.008 A 
ATOM      5  C   UNL     1      -0.384  -7.049   4.973  0.00  0.00    +0.021 A 
ATOM      6  C   UNL     1      -1.688  -7.466   4.730  0.00  0.00    +0.057 A 
ATOM      7  C   UNL     1      -2.460  -6.859   3.787  0.00  0.00    +0.040 A 
ATOM      8  C   UNL     1      -1.945  -5.788   3.034  0.00  0.00    +0.072 A 
ATOM      9  N   UNL     1      -2.692  -5.182   2.106  0.00  0.00    -0.253 NA
ATOM     10  C   UNL     1      -2.231  -4.180   1.400  0.00  0.00    +0.134 A 
ENDROOT
BRANCH   1  15
ATOM     11  C   UNL     1      -0.037   1.464  -0.002  0.00  0.00    +0.105 C 
ATOM     12  N   UNL     1      -0.008  -0.004  -0.004  0.00  0.00    -0.302 NA
ATOM     13  C   UNL     1      -1.365  -0.558  -0.107  0.00  0.00    +0.103 C 
ATOM     14  C   UNL     1      -1.280  -2.077  -0.288  0.00  0.00    +0.120 C 
ATOM     15  N   UNL     1      -0.463  -2.633   0.801  0.00  0.00    -0.326 N 
ATOM     16  C   UNL     1       0.858  -2.036   1.054  0.00  0.00    +0.120 C 
ATOM     17  C   UNL     1       0.689  -0.518   1.182  0.00  0.00    +0.103 C 
ENDBRANCH   1  15
BRANCH   4  18
ATOM     18  C   UNL     1       1.554  -5.560   4.517  0.00  0.00    -0.017 A 
ATOM     19  C   UNL     1       2.447  -5.395   3.459  0.00  0.00    +0.008 A 
ATOM     20  C   UNL     1       3.741  -4.985   3.709  0.00  0.00    +0.001 A 
ATOM     21  C   UNL     1       4.152  -4.737   5.006  0.00  0.00    +0.000 A 
ATOM     22  C   UNL     1       3.271  -4.898   6.060  0.00  0.00    +0.001 A 
ATOM     23  C   UNL     1       1.973  -5.302   5.822  0.00  0.00    +0.008 A 
ENDBRANCH   4  18
BRANCH   6  24
ATOM     24  C   UNL     1      -2.258  -8.612   5.525  0.00  0.00    +0.418 C 
ATOM     25  F   UNL     1      -2.875  -8.118   6.679  0.00  0.00    -0.166 F 
ATOM     26  F   UNL     1      -3.200  -9.296   4.749  0.00  0.00    -0.166 F 
ATOM     27  F   UNL     1      -1.228  -9.488   5.886  0.00  0.00    -0.166 F 
ENDBRANCH   6  24
TORSDOF 3
