REMARK  Name = CHEMBL253222
REMARK  12 active torsions:
REMARK  status: ('A' for Active; 'I' for Inactive)
REMARK    1  A    between atoms: C_1  and  C_2
REMARK    2  A    between atoms: C_3  and  O_28
REMARK    3  A    between atoms: C_7  and  O_11
REMARK    4  A    between atoms: O_11  and  C_12
REMARK    5  A    between atoms: C_15  and  N_19
REMARK    6  A    between atoms: C_20  and  C_22
REMARK    7  A    between atoms: O_28  and  C_29
REMARK    8  A    between atoms: C_29  and  C_30
REMARK    9  A    between atoms: C_30  and  C_31
REMARK   10  A    between atoms: C_31  and  N_32
REMARK   11  A    between atoms: N_32  and  C_33
REMARK   12  A    between atoms: N_32  and  C_34
REMARK                            x       y       z     vdW  Elec       q    Type
REMARK                         _______ _______ _______ _____ _____    ______ ____
ROOT
ATOM      1  C   UNL     1      -0.075   1.450   0.007  0.00  0.00    +0.050 C 
ATOM      2  C   UNL     1       0.042  -0.053   0.012  0.00  0.00    +0.023 A 
ATOM      3  C   UNL     1       0.096  -0.886  -1.109  0.00  0.00    +0.144 A 
ATOM      4  C   UNL     1       0.201  -2.172  -0.670  0.00  0.00    +0.159 A 
ATOM      5  N   UNL     1       0.216  -2.175   0.683  0.00  0.00    -0.229 N 
ATOM      6  C   UNL     1       0.124  -0.868   1.125  0.00  0.00    +0.134 A 
ATOM      7  C   UNL     1       0.127  -0.625   2.516  0.00  0.00    +0.248 A 
ATOM      8  N   UNL     1       0.221  -1.646   3.349  0.00  0.00    -0.198 NA
ATOM      9  C   UNL     1       0.312  -2.900   2.911  0.00  0.00    +0.247 A 
ATOM     10  N   UNL     1       0.306  -3.196   1.640  0.00  0.00    -0.155 NA
ENDROOT
BRANCH   7  11
ATOM     11  O   UNL     1       0.037   0.640   2.989  0.00  0.00    -0.433 OA
BRANCH  11  12
ATOM     12  C   UNL     1      -0.061   0.812   4.335  0.00  0.00    +0.166 A 
ATOM     13  C   UNL     1      -1.308   0.932   4.929  0.00  0.00    +0.051 A 
ATOM     14  C   UNL     1      -1.409   1.107   6.296  0.00  0.00    +0.027 A 
ATOM     15  C   UNL     1      -0.261   1.163   7.075  0.00  0.00    +0.037 A 
ATOM     16  C   UNL     1       0.988   1.043   6.481  0.00  0.00    +0.065 A 
ATOM     17  C   UNL     1       1.088   0.861   5.114  0.00  0.00    +0.167 A 
ATOM     18  F   UNL     1       2.303   0.738   4.536  0.00  0.00    -0.202 F 
BRANCH  15  19
ATOM     19  N   UNL     1      -0.363   1.342   8.460  0.00  0.00    -0.281 N 
ATOM     20  C   UNL     1       0.561   2.072   9.116  0.00  0.00    +0.250 C 
ATOM     21  O   UNL     1       1.528   2.505   8.520  0.00  0.00    -0.270 OA
ATOM     22  H   UNL     1      -1.099   0.940   8.948  0.00  0.00    +0.155 HD
BRANCH  20  23
ATOM     23  C   UNL     1       0.398   2.348  10.559  0.00  0.00    +0.055 A 
ATOM     24  C   UNL     1       1.347   3.110  11.250  0.00  0.00    +0.016 A 
ATOM     25  C   UNL     1       1.148   3.339  12.600  0.00  0.00    +0.020 A 
ATOM     26  C   UNL     1       0.028   2.812  13.217  0.00  0.00    +0.111 A 
ATOM     27  N   UNL     1      -0.851   2.098  12.541  0.00  0.00    -0.263 NA
ATOM     28  C   UNL     1      -0.708   1.857  11.254  0.00  0.00    +0.123 A 
ENDBRANCH  20  23
ENDBRANCH  15  19
ENDBRANCH  11  12
ENDBRANCH   7  11
BRANCH   3  29
ATOM     29  O   UNL     1       0.050  -0.484  -2.409  0.00  0.00    -0.490 OA
BRANCH  29  30
ATOM     30  C   UNL     1       0.119  -1.505  -3.407  0.00  0.00    +0.227 C 
BRANCH  30  31
ATOM     31  C   UNL     1       0.054  -0.867  -4.796  0.00  0.00    +0.022 C 
BRANCH  31  32
ATOM     32  C   UNL     1       0.128  -1.960  -5.863  0.00  0.00    -0.076 C 
BRANCH  32  33
ATOM     33  N   UNL     1       0.066  -1.347  -7.197  0.00  0.00    +0.376 N 
ATOM     34  C   UNL     1       0.257  -2.383  -8.221  0.00  0.00    -0.097 C 
ATOM     35  C   UNL     1      -1.246  -0.711  -7.382  0.00  0.00    -0.097 C 
ATOM     36  H   UNL     1       0.792  -0.652  -7.282  0.00  0.00    -0.083 HD
ENDBRANCH  32  33
ENDBRANCH  31  32
ENDBRANCH  30  31
ENDBRANCH  29  30
ENDBRANCH   3  29
TORSDOF 9
