REMARK  Name = CHEMBL1096536
REMARK  9 active torsions:
REMARK  status: ('A' for Active; 'I' for Inactive)
REMARK    1  A    between atoms: C_1  and  S_2
REMARK    2  A    between atoms: S_2  and  C_3
REMARK    3  A    between atoms: C_6  and  C_25
REMARK    4  A    between atoms: C_7  and  N_9
REMARK    5  A    between atoms: N_9  and  C_10
REMARK    6  A    between atoms: C_13  and  O_17
REMARK    7  A    between atoms: O_17  and  C_18
REMARK    8  A    between atoms: C_22  and  N_24
REMARK    9  A    between atoms: N_27  and  C_28
REMARK                            x       y       z     vdW  Elec       q    Type
REMARK                         _______ _______ _______ _____ _____    ______ ____
ROOT
ATOM      1  C   UNL     1      -2.071  -0.068  -2.511  0.00  0.00    +0.190 A 
ATOM      2  N   UNL     1      -3.072   0.805  -2.490  0.00  0.00    -0.229 NA
ATOM      3  C   UNL     1      -4.157   0.581  -1.772  0.00  0.00    +0.130 A 
ATOM      4  C   UNL     1      -4.247  -0.599  -1.024  0.00  0.00    +0.095 A 
ATOM      5  C   UNL     1      -3.162  -1.502  -1.071  0.00  0.00    +0.139 A 
ATOM      6  N   UNL     1      -2.110  -1.200  -1.824  0.00  0.00    -0.206 NA
ENDROOT
BRANCH   4   7
ATOM      7  C   UNL     1      -5.437  -0.889  -0.210  0.00  0.00    +0.253 C 
ATOM      8  O   UNL     1      -5.542  -1.963   0.352  0.00  0.00    -0.270 OA
ATOM      9  N   UNL     1      -6.411   0.034  -0.087  0.00  0.00    -0.279 N 
ATOM     10  H   UNL     1      -6.363   0.861  -0.593  0.00  0.00    +0.155 HD
BRANCH   9  11
ATOM     11  C   UNL     1      -7.493  -0.199   0.771  0.00  0.00    +0.069 A 
ATOM     12  C   UNL     1      -7.328  -0.990   1.900  0.00  0.00    +0.029 A 
ATOM     13  C   UNL     1      -8.396  -1.218   2.745  0.00  0.00    +0.040 A 
ATOM     14  C   UNL     1      -9.633  -0.660   2.468  0.00  0.00    +0.126 A 
ATOM     15  C   UNL     1      -9.802   0.129   1.343  0.00  0.00    +0.078 A 
ATOM     16  C   UNL     1      -8.734   0.366   0.497  0.00  0.00    +0.147 A 
ATOM     17  F   UNL     1      -8.898   1.140  -0.598  0.00  0.00    -0.203 F 
ATOM     18  F   UNL     1     -10.675  -0.886   3.297  0.00  0.00    -0.205 F 
ENDBRANCH   9  11
ENDBRANCH   4   7
BRANCH   1  20
ATOM     19  C   UNL     1      -1.021   1.900  -4.234  0.00  0.00    +0.093 C 
ATOM     20  S   UNL     1      -0.648   0.289  -3.488  0.00  0.00    -0.089 S 
ENDBRANCH   1  20
BRANCH   5  21
ATOM     21  N   UNL     1      -3.197  -2.680  -0.353  0.00  0.00    -0.299 N 
ATOM     22  H   UNL     1      -4.007  -2.940   0.113  0.00  0.00    +0.154 HD
BRANCH  21  23
ATOM     23  C   UNL     1      -2.063  -3.499  -0.297  0.00  0.00    +0.035 A 
ATOM     24  C   UNL     1      -0.796  -2.932  -0.287  0.00  0.00    +0.027 A 
ATOM     25  C   UNL     1       0.323  -3.740  -0.233  0.00  0.00    +0.051 A 
ATOM     26  C   UNL     1       0.181  -5.119  -0.187  0.00  0.00    +0.164 A 
ATOM     27  C   UNL     1      -1.086  -5.688  -0.197  0.00  0.00    +0.167 A 
ATOM     28  C   UNL     1      -2.206  -4.880  -0.246  0.00  0.00    +0.065 A 
ATOM     29  F   UNL     1      -1.224  -7.032  -0.152  0.00  0.00    -0.202 F 
BRANCH  26  30
ATOM     30  O   UNL     1       1.284  -5.914  -0.133  0.00  0.00    -0.453 OA
BRANCH  30  31
ATOM     31  C   UNL     1       2.502  -5.321  -0.210  0.00  0.00    +0.133 A 
ATOM     32  C   UNL     1       3.050  -4.669   0.894  0.00  0.00    +0.064 A 
ATOM     33  C   UNL     1       4.290  -4.077   0.780  0.00  0.00    +0.088 A 
ATOM     34  N   UNL     1       4.960  -4.121  -0.356  0.00  0.00    -0.350 N 
ATOM     35  C   UNL     1       4.476  -4.729  -1.429  0.00  0.00    +0.097 A 
ATOM     36  C   UNL     1       3.236  -5.353  -1.390  0.00  0.00    +0.087 A 
ATOM     37  H   UNL     1       5.831  -3.696  -0.407  0.00  0.00    +0.166 HD
BRANCH  35  38
ATOM     38  N   UNL     1       5.219  -4.748  -2.604  0.00  0.00    -0.345 N 
ATOM     39  H   UNL     1       6.088  -4.318  -2.635  0.00  0.00    +0.144 HD
ATOM     40  H   UNL     1       4.869  -5.193  -3.392  0.00  0.00    +0.144 HD
ENDBRANCH  35  38
ENDBRANCH  30  31
ENDBRANCH  26  30
ENDBRANCH  21  23
ENDBRANCH   5  21
TORSDOF 8
