REMARK  Name = CHEMBL602472
REMARK  6 active torsions:
REMARK  status: ('A' for Active; 'I' for Inactive)
REMARK    1  A    between atoms: C_1  and  C_2
REMARK    2  A    between atoms: C_2  and  C_4
REMARK    3  A    between atoms: C_2  and  O_13
REMARK    4  A    between atoms: O_13  and  C_14
REMARK    5  A    between atoms: C_21  and  C_24
REMARK    6  A    between atoms: C_26  and  C_27
REMARK                            x       y       z     vdW  Elec       q    Type
REMARK                         _______ _______ _______ _____ _____    ______ ____
ROOT
ATOM      1  C   UNL     1       2.026  -0.553  -1.118  0.00  0.00    +0.122 A 
ATOM      2  C   UNL     1       2.686  -0.305   0.089  0.00  0.00    +0.048 A 
ATOM      3  C   UNL     1       4.040  -0.385   0.177  0.00  0.00    +0.032 A 
ATOM      4  C   UNL     1       4.796  -0.722  -0.960  0.00  0.00    +0.071 A 
ATOM      5  C   UNL     1       4.127  -0.974  -2.184  0.00  0.00    +0.004 A 
ATOM      6  C   UNL     1       2.727  -0.888  -2.241  0.00  0.00    +0.055 A 
ATOM      7  C   UNL     1       4.887  -1.311  -3.320  0.00  0.00    +0.015 A 
ATOM      8  C   UNL     1       6.245  -1.381  -3.190  0.00  0.00    -0.025 A 
ATOM      9  C   UNL     1       6.839  -1.121  -1.957  0.00  0.00    +0.115 A 
ATOM     10  N   UNL     1       6.128  -0.808  -0.901  0.00  0.00    -0.255 NA
ENDROOT
BRANCH   8  11
ATOM     11  C   UNL     1       7.099  -1.739  -4.379  0.00  0.00    +0.033 C 
ATOM     12  C   UNL     1       8.586  -1.998  -4.128  0.00  0.00    +0.022 C 
ATOM     13  C   UNL     1       8.142  -0.715  -4.833  0.00  0.00    +0.083 C 
BRANCH  13  14
ATOM     14  C   UNL     1       8.236   0.573  -4.057  0.00  0.00    +0.214 C 
ATOM     15  O   UNL     1       7.501   0.767  -3.112  0.00  0.00    -0.276 OA
ATOM     16  N   UNL     1       9.137   1.510  -4.414  0.00  0.00    -0.329 N 
ATOM     17  H   UNL     1       9.725   1.355  -5.169  0.00  0.00    +0.145 HD
ATOM     18  H   UNL     1       9.198   2.340  -3.914  0.00  0.00    +0.145 HD
ENDBRANCH  13  14
ENDBRANCH   8  11
BRANCH   1  19
ATOM     19  O   UNL     1       0.671  -0.465  -1.174  0.00  0.00    -0.484 OA
BRANCH  19  21
ATOM     20  C   UNL     1      -0.043   1.273   0.346  0.00  0.00    +0.057 C 
ATOM     21  C   UNL     1      -0.015  -0.229   0.058  0.00  0.00    +0.203 C 
BRANCH  21  22
ATOM     22  C   UNL     1      -1.426  -0.747  -0.046  0.00  0.00    +0.032 A 
ATOM     23  C   UNL     1      -2.177  -0.486  -1.179  0.00  0.00    +0.049 A 
ATOM     24  C   UNL     1      -3.473  -0.961  -1.275  0.00  0.00    +0.023 A 
ATOM     25  C   UNL     1      -4.018  -1.697  -0.240  0.00  0.00    +0.041 A 
ATOM     26  C   UNL     1      -3.268  -1.960   0.893  0.00  0.00    +0.142 A 
ATOM     27  C   UNL     1      -1.969  -1.488   0.988  0.00  0.00    +0.084 A 
ATOM     28 CL   UNL     1      -1.024  -1.822   2.405  0.00  0.00    -0.080 Cl
ATOM     29  F   UNL     1      -3.801  -2.679   1.905  0.00  0.00    -0.204 F 
ATOM     30 CL   UNL     1      -1.494   0.439  -2.479  0.00  0.00    -0.083 Cl
ENDBRANCH  21  22
ENDBRANCH  19  21
ENDBRANCH   1  19
TORSDOF 5
