REMARK  Name = CHEMBL525260
REMARK  6 active torsions:
REMARK  status: ('A' for Active; 'I' for Inactive)
REMARK    1  A    between atoms: C_3  and  C_7
REMARK    2  A    between atoms: C_10  and  O_17
REMARK    3  A    between atoms: O_17  and  C_18
REMARK    4  A    between atoms: C_21  and  N_25
REMARK    5  A    between atoms: C_29  and  C_31
REMARK    6  A    between atoms: C_31  and  C_32
REMARK                            x       y       z     vdW  Elec       q    Type
REMARK                         _______ _______ _______ _____ _____    ______ ____
ROOT
ATOM      1  C   UNL     1       9.351   1.549  -0.142  0.00  0.00    +0.164 A 
ATOM      2  C   UNL     1       9.888   2.826  -0.080  0.00  0.00    +0.051 A 
ATOM      3  C   UNL     1      11.258   3.001  -0.069  0.00  0.00    +0.027 A 
ATOM      4  C   UNL     1      12.099   1.898  -0.120  0.00  0.00    +0.038 A 
ATOM      5  C   UNL     1      11.564   0.618  -0.182  0.00  0.00    +0.065 A 
ATOM      6  C   UNL     1      10.192   0.444  -0.187  0.00  0.00    +0.167 A 
ATOM      7  F   UNL     1       9.670  -0.801  -0.242  0.00  0.00    -0.202 F 
ENDROOT
BRANCH   4   8
ATOM      8  N   UNL     1      13.489   2.076  -0.110  0.00  0.00    -0.269 N 
ATOM      9  C   UNL     1      14.035   3.074   0.613  0.00  0.00    +0.310 C 
ATOM     10  O   UNL     1      13.319   3.862   1.199  0.00  0.00    -0.252 OA
ATOM     11  N   UNL     1      15.375   3.197   0.687  0.00  0.00    -0.240 N 
ATOM     12  C   UNL     1      15.922   4.195   1.410  0.00  0.00    +0.225 C 
ATOM     13  O   UNL     1      15.207   4.981   1.994  0.00  0.00    -0.275 OA
ATOM     14  H   UNL     1      14.058   1.481  -0.623  0.00  0.00    +0.156 HD
ATOM     15  H   UNL     1      15.947   2.567   0.220  0.00  0.00    +0.159 HD
BRANCH  12  16
ATOM     16  C   UNL     1      17.420   4.332   1.492  0.00  0.00    +0.131 C 
BRANCH  16  17
ATOM     17  C   UNL     1      17.769   5.518   2.354  0.00  0.00    -0.038 A 
ATOM     18  C   UNL     1      17.911   6.769   1.784  0.00  0.00    +0.007 A 
ATOM     19  C   UNL     1      18.231   7.857   2.574  0.00  0.00    +0.038 A 
ATOM     20  C   UNL     1      18.408   7.694   3.937  0.00  0.00    +0.123 A 
ATOM     21  C   UNL     1      18.265   6.440   4.508  0.00  0.00    +0.038 A 
ATOM     22  C   UNL     1      17.941   5.355   3.716  0.00  0.00    +0.007 A 
ATOM     23  F   UNL     1      18.721   8.757   4.710  0.00  0.00    -0.205 F 
ENDBRANCH  16  17
ENDBRANCH  12  16
ENDBRANCH   4   8
BRANCH   1  24
ATOM     24  O   UNL     1       8.002   1.377  -0.152  0.00  0.00    -0.452 OA
BRANCH  24  28
ATOM     25  C   UNL     1       3.736   1.032   0.809  0.00  0.00    +0.050 A 
ATOM     26  C   UNL     1       4.899   1.186   0.129  0.00  0.00    +0.041 A 
ATOM     27  C   UNL     1       5.977   1.097   1.111  0.00  0.00    +0.061 A 
ATOM     28  C   UNL     1       7.377   1.176   1.035  0.00  0.00    +0.141 A 
ATOM     29  C   UNL     1       8.101   1.042   2.212  0.00  0.00    +0.066 A 
ATOM     30  C   UNL     1       7.426   0.837   3.403  0.00  0.00    +0.117 A 
ATOM     31  N   UNL     1       6.112   0.766   3.450  0.00  0.00    -0.237 NA
ATOM     32  C   UNL     1       5.364   0.887   2.360  0.00  0.00    +0.142 A 
ATOM     33  N   UNL     1       4.006   0.858   2.148  0.00  0.00    -0.339 N 
ATOM     34  H   UNL     1       3.338   0.731   2.840  0.00  0.00    +0.167 HD
BRANCH  25  37
ATOM     35  C   UNL     1       0.007   0.916   0.392  0.00  0.00    +0.020 A 
ATOM     36  C   UNL     1       1.248   0.888   1.005  0.00  0.00    +0.013 A 
ATOM     37  C   UNL     1       2.386   1.053   0.207  0.00  0.00    +0.016 A 
ATOM     38  C   UNL     1       2.224   1.238  -1.167  0.00  0.00    +0.120 A 
ATOM     39  N   UNL     1       1.022   1.257  -1.704  0.00  0.00    -0.263 NA
ATOM     40  C   UNL     1      -0.068   1.105  -0.976  0.00  0.00    +0.111 A 
ENDBRANCH  25  37
ENDBRANCH  24  28
ENDBRANCH   1  24
TORSDOF 6
