REMARK  Name = CHEMBL461120
REMARK  8 active torsions:
REMARK  status: ('A' for Active; 'I' for Inactive)
REMARK    1  A    between atoms: C_1  and  O_2
REMARK    2  A    between atoms: O_2  and  C_3
REMARK    3  A    between atoms: C_6  and  O_15
REMARK    4  A    between atoms: C_12  and  O_13
REMARK    5  A    between atoms: O_13  and  C_14
REMARK    6  A    between atoms: O_15  and  C_16
REMARK    7  A    between atoms: C_26  and  C_28
REMARK    8  A    between atoms: C_28  and  N_29
REMARK                            x       y       z     vdW  Elec       q    Type
REMARK                         _______ _______ _______ _____ _____    ______ ____
ROOT
ATOM      1  C   UNL     1       2.956   2.345   5.135  0.00  0.00    +0.147 A 
ATOM      2  C   UNL     1       2.835   3.732   5.132  0.00  0.00    +0.051 A 
ATOM      3  C   UNL     1       3.387   4.444   6.181  0.00  0.00    +0.047 A 
ATOM      4  C   UNL     1       4.041   3.755   7.197  0.00  0.00    +0.126 A 
ATOM      5  N   UNL     1       4.137   2.436   7.166  0.00  0.00    -0.236 NA
ATOM      6  C   UNL     1       3.616   1.726   6.184  0.00  0.00    +0.159 A 
ATOM      7  N   UNL     1       4.602   4.463   8.261  0.00  0.00    -0.254 N 
ATOM      8  C   UNL     1       5.330   3.816   9.192  0.00  0.00    +0.311 C 
ATOM      9  O   UNL     1       5.417   2.604   9.161  0.00  0.00    -0.252 OA
ATOM     10  N   UNL     1       5.963   4.512  10.157  0.00  0.00    -0.241 N 
ATOM     11  C   UNL     1       6.691   3.865  11.088  0.00  0.00    +0.204 C 
ATOM     12  O   UNL     1       6.777   2.656  11.057  0.00  0.00    -0.277 OA
ATOM     13  H   UNL     1       4.468   5.421   8.330  0.00  0.00    +0.158 HD
ATOM     14  H   UNL     1       5.894   5.479  10.181  0.00  0.00    +0.159 HD
ENDROOT
BRANCH   1  15
ATOM     15  O   UNL     1       2.428   1.606   4.123  0.00  0.00    -0.454 OA
BRANCH  15  19
ATOM     16  C   UNL     1       0.490  -0.514   1.052  0.00  0.00    +0.162 A 
ATOM     17  C   UNL     1       1.146   0.184   2.025  0.00  0.00    +0.063 A 
ATOM     18  C   UNL     1       0.609   0.243   3.320  0.00  0.00    +0.044 A 
ATOM     19  C   UNL     1       1.260   0.956   4.351  0.00  0.00    +0.139 A 
ATOM     20  C   UNL     1       0.669   0.970   5.603  0.00  0.00    +0.064 A 
ATOM     21  C   UNL     1      -0.527   0.294   5.807  0.00  0.00    +0.086 A 
ATOM     22  N   UNL     1      -1.123  -0.365   4.842  0.00  0.00    -0.360 N 
ATOM     23  C   UNL     1      -0.609  -0.420   3.608  0.00  0.00    +0.054 A 
ATOM     24  C   UNL     1      -1.260  -1.130   2.586  0.00  0.00    +0.075 A 
ATOM     25  C   UNL     1      -0.719  -1.167   1.333  0.00  0.00    +0.163 A 
ATOM     26  H   UNL     1      -1.958  -0.824   5.027  0.00  0.00    +0.165 HD
BRANCH  16  28
ATOM     27  C   UNL     1       2.244   0.115  -0.425  0.00  0.00    +0.277 C 
ATOM     28  O   UNL     1       1.010  -0.571  -0.203  0.00  0.00    -0.491 OA
ENDBRANCH  16  28
BRANCH  25  29
ATOM     29  O   UNL     1      -1.356  -1.851   0.347  0.00  0.00    -0.491 OA
ATOM     30  C   UNL     1      -2.583  -2.496   0.693  0.00  0.00    +0.277 C 
ENDBRANCH  25  29
ENDBRANCH  15  19
ENDBRANCH   1  15
BRANCH  11  31
ATOM     31  C   UNL     1       7.399   4.643  12.167  0.00  0.00    +0.019 C 
BRANCH  31  32
ATOM     32  N   UNL     1       8.118   3.715  13.049  0.00  0.00    +0.385 N 
ATOM     33  C   UNL     1       7.151   2.858  13.747  0.00  0.00    -0.078 C 
ATOM     34  C   UNL     1       7.898   1.835  14.606  0.00  0.00    -0.019 C 
ATOM     35  C   UNL     1       8.762   2.573  15.633  0.00  0.00    -0.004 C 
ATOM     36  C   UNL     1       9.716   3.519  14.896  0.00  0.00    -0.019 C 
ATOM     37  C   UNL     1       8.902   4.479  14.026  0.00  0.00    -0.078 C 
ATOM     38  H   UNL     1       8.737   3.140  12.498  0.00  0.00    -0.081 HD
ENDBRANCH  31  32
ENDBRANCH  11  31
TORSDOF 6
