REMARK  Name = CHEMBL515858
REMARK  9 active torsions:
REMARK  status: ('A' for Active; 'I' for Inactive)
REMARK    1  A    between atoms: C_1  and  N_2
REMARK    2  A    between atoms: N_5  and  C_8
REMARK    3  A    between atoms: C_8  and  C_9
REMARK    4  A    between atoms: C_10  and  O_16
REMARK    5  A    between atoms: C_14  and  N_15
REMARK    6  A    between atoms: O_16  and  C_17
REMARK    7  A    between atoms: C_20  and  N_24
REMARK    8  A    between atoms: C_25  and  C_27
REMARK    9  A    between atoms: N_31  and  C_34
REMARK                            x       y       z     vdW  Elec       q    Type
REMARK                         _______ _______ _______ _____ _____    ______ ____
ROOT
ATOM      1  C   UNL     1       3.544  -4.194   2.162  0.00  0.00    +0.164 A 
ATOM      2  C   UNL     1       3.938  -4.288   3.489  0.00  0.00    +0.051 A 
ATOM      3  C   UNL     1       5.226  -4.676   3.801  0.00  0.00    +0.027 A 
ATOM      4  C   UNL     1       6.128  -4.972   2.788  0.00  0.00    +0.037 A 
ATOM      5  C   UNL     1       5.734  -4.878   1.460  0.00  0.00    +0.065 A 
ATOM      6  C   UNL     1       4.443  -4.495   1.147  0.00  0.00    +0.167 A 
ATOM      7  F   UNL     1       4.058  -4.409  -0.145  0.00  0.00    -0.202 F 
ENDROOT
BRANCH   4   8
ATOM      8  N   UNL     1       7.434  -5.364   3.106  0.00  0.00    -0.281 N 
ATOM      9  C   UNL     1       8.433  -5.153   2.227  0.00  0.00    +0.254 C 
ATOM     10  O   UNL     1       8.183  -4.757   1.104  0.00  0.00    -0.270 OA
ATOM     11  H   UNL     1       7.619  -5.788   3.958  0.00  0.00    +0.155 HD
BRANCH   9  12
ATOM     12  C   UNL     1       9.827  -5.401   2.625  0.00  0.00    +0.102 A 
ATOM     13  C   UNL     1      10.880  -5.022   1.794  0.00  0.00    +0.020 A 
ATOM     14  C   UNL     1      12.189  -5.273   2.205  0.00  0.00    +0.019 A 
ATOM     15  C   UNL     1      12.425  -5.878   3.397  0.00  0.00    +0.095 A 
ATOM     16  N   UNL     1      11.405  -6.249   4.211  0.00  0.00    -0.284 N 
ATOM     17  C   UNL     1      10.123  -6.025   3.864  0.00  0.00    +0.268 A 
ATOM     18  O   UNL     1       9.220  -6.362   4.610  0.00  0.00    -0.267 OA
BRANCH  16  19
ATOM     19  C   UNL     1      11.690  -6.871   5.433  0.00  0.00    +0.050 A 
ATOM     20  C   UNL     1      11.366  -8.208   5.625  0.00  0.00    +0.029 A 
ATOM     21  C   UNL     1      11.648  -8.819   6.830  0.00  0.00    +0.040 A 
ATOM     22  C   UNL     1      12.253  -8.101   7.848  0.00  0.00    +0.124 A 
ATOM     23  C   UNL     1      12.577  -6.767   7.658  0.00  0.00    +0.040 A 
ATOM     24  C   UNL     1      12.302  -6.154   6.452  0.00  0.00    +0.029 A 
ATOM     25  F   UNL     1      12.528  -8.701   9.027  0.00  0.00    -0.205 F 
ENDBRANCH  16  19
ENDBRANCH   9  12
ENDBRANCH   4   8
BRANCH   1  26
ATOM     26  O   UNL     1       2.275  -3.812   1.855  0.00  0.00    -0.453 OA
BRANCH  26  28
ATOM     27  C   UNL     1       0.082  -4.455   1.160  0.00  0.00    +0.046 A 
ATOM     28  C   UNL     1       1.417  -4.759   1.397  0.00  0.00    +0.138 A 
ATOM     29  C   UNL     1       1.855  -6.060   1.152  0.00  0.00    +0.064 A 
ATOM     30  C   UNL     1       0.957  -6.997   0.687  0.00  0.00    +0.088 A 
ATOM     31  N   UNL     1      -0.306  -6.677   0.471  0.00  0.00    -0.349 N 
ATOM     32  C   UNL     1      -0.764  -5.454   0.696  0.00  0.00    +0.102 A 
ATOM     33  H   UNL     1      -0.916  -7.356   0.143  0.00  0.00    +0.166 HD
BRANCH  32  34
ATOM     34  N   UNL     1      -2.104  -5.166   0.461  0.00  0.00    -0.344 N 
ATOM     35  H   UNL     1      -2.443  -4.272   0.620  0.00  0.00    +0.144 HD
ATOM     36  H   UNL     1      -2.699  -5.860   0.137  0.00  0.00    +0.144 HD
ENDBRANCH  32  34
BRANCH  27  37
ATOM     37  C   UNL     1      -0.441  -3.064   1.408  0.00  0.00    +0.126 C 
BRANCH  37  42
ATOM     38  C   UNL     1      -1.552  -1.689   6.773  0.00  0.00    +0.105 C 
ATOM     39  N   UNL     1      -1.077  -1.793   5.386  0.00  0.00    -0.303 NA
ATOM     40  C   UNL     1      -2.192  -1.668   4.437  0.00  0.00    +0.099 C 
ATOM     41  C   UNL     1      -1.647  -1.702   3.007  0.00  0.00    +0.100 C 
ATOM     42  N   UNL     1      -0.916  -2.959   2.794  0.00  0.00    -0.296 NA
ATOM     43  C   UNL     1       0.198  -3.085   3.744  0.00  0.00    +0.100 C 
ATOM     44  C   UNL     1      -0.347  -3.050   5.173  0.00  0.00    +0.099 C 
ENDBRANCH  37  42
ENDBRANCH  27  37
ENDBRANCH  26  28
ENDBRANCH   1  26
TORSDOF 8
