REMARK  Name = CHEMBL558306
REMARK  3 active torsions:
REMARK  status: ('A' for Active; 'I' for Inactive)
REMARK    1  A    between atoms: N_3  and  S_11
REMARK    2  A    between atoms: C_8  and  N_10
REMARK    3  A    between atoms: S_11  and  C_14
REMARK                            x       y       z     vdW  Elec       q    Type
REMARK                         _______ _______ _______ _____ _____    ______ ____
ROOT
ATOM      1  C   UNL     1       0.055   1.812   0.051  0.00  0.00    +0.049 A 
ATOM      2  C   UNL     1       1.363   2.099  -0.040  0.00  0.00    +0.115 A 
ATOM      3  N   UNL     1       2.100   0.950   0.042  0.00  0.00    -0.215 N 
ATOM      4  C   UNL     1       1.262  -0.132   0.191  0.00  0.00    +0.092 A 
ATOM      5  C   UNL     1      -0.057   0.359   0.204  0.00  0.00    +0.091 A 
ATOM      6  N   UNL     1      -1.086  -0.473   0.337  0.00  0.00    -0.252 NA
ATOM      7  C   UNL     1      -0.909  -1.770   0.460  0.00  0.00    +0.134 A 
ATOM      8  C   UNL     1       0.367  -2.328   0.457  0.00  0.00    +0.045 A 
ATOM      9  C   UNL     1       1.475  -1.500   0.321  0.00  0.00    +0.054 A 
ENDROOT
BRANCH   8  10
ATOM     10  N   UNL     1       0.533  -3.710   0.589  0.00  0.00    -0.357 N 
ATOM     11  H   UNL     1      -0.243  -4.285   0.685  0.00  0.00    +0.142 HD
ATOM     12  H   UNL     1       1.423  -4.095   0.587  0.00  0.00    +0.142 HD
ENDBRANCH   8  10
BRANCH   3  13
ATOM     13  S   UNL     1       3.753   0.871  -0.030  0.00  0.00    +0.103 S 
ATOM     14  O   UNL     1       4.071  -0.153  -0.962  0.00  0.00    -0.146 OA
ATOM     15  O   UNL     1       4.217   2.206  -0.177  0.00  0.00    -0.146 OA
BRANCH  13  16
ATOM     16  C   UNL     1       4.316   0.313   1.544  0.00  0.00    +0.224 A 
ATOM     17  C   UNL     1       4.430   1.059   2.656  0.00  0.00    +0.176 A 
ATOM     18  N   UNL     1       4.891   0.277   3.645  0.00  0.00    -0.208 NA
ATOM     19  C   UNL     1       5.067  -0.928   3.184  0.00  0.00    +0.180 A 
ATOM     20  N   UNL     1       4.718  -0.984   1.861  0.00  0.00    -0.276 N 
ATOM     21  C   UNL     1       4.845  -2.203   1.232  0.00  0.00    +0.102 A 
ATOM     22  C   UNL     1       5.286  -3.270   1.897  0.00  0.00    +0.067 A 
ATOM     23  S   UNL     1       5.575  -2.597   3.526  0.00  0.00    -0.058 S 
ATOM     24 CL   UNL     1       4.047   2.747   2.790  0.00  0.00    -0.058 Cl
ENDBRANCH  13  16
ENDBRANCH   3  13
TORSDOF 3
