REMARK  Name = CHEMBL494979
REMARK  6 active torsions:
REMARK  status: ('A' for Active; 'I' for Inactive)
REMARK    1  A    between atoms: C_1  and  O_2
REMARK    2  A    between atoms: O_2  and  C_3
REMARK    3  A    between atoms: C_7  and  O_13
REMARK    4  A    between atoms: O_13  and  C_14
REMARK    5  A    between atoms: C_14  and  C_15
REMARK    6  A    between atoms: C_21  and  C_24
REMARK                            x       y       z     vdW  Elec       q    Type
REMARK                         _______ _______ _______ _____ _____    ______ ____
ROOT
ATOM      1  C   UNL     1       4.214  -1.466  -7.398  0.00  0.00    +0.192 A 
ATOM      2  N   UNL     1       3.583  -0.972  -8.434  0.00  0.00    -0.129 NA
ATOM      3  N   UNL     1       4.356  -0.177  -9.088  0.00  0.00    -0.128 NA
ATOM      4  C   UNL     1       5.535  -0.125  -8.491  0.00  0.00    +0.178 A 
ATOM      5  N   UNL     1       5.461  -0.948  -7.393  0.00  0.00    -0.193 N 
ATOM      6  N   UNL     1       6.567  -1.095  -6.552  0.00  0.00    -0.163 NA
ATOM      7  C   UNL     1       7.684  -0.448  -6.800  0.00  0.00    +0.092 A 
ATOM      8  C   UNL     1       7.790   0.407  -7.918  0.00  0.00    +0.034 A 
ATOM      9  C   UNL     1       6.733   0.564  -8.759  0.00  0.00    +0.052 A 
ENDROOT
BRANCH   7  10
ATOM     10  C   UNL     1       8.846  -0.617  -5.894  0.00  0.00    +0.008 A 
ATOM     11  C   UNL     1      10.033   0.069  -6.145  0.00  0.00    +0.051 A 
ATOM     12  C   UNL     1      11.114  -0.091  -5.299  0.00  0.00    +0.162 A 
ATOM     13  C   UNL     1      11.018  -0.934  -4.202  0.00  0.00    +0.193 A 
ATOM     14  C   UNL     1       9.839  -1.619  -3.949  0.00  0.00    +0.162 A 
ATOM     15  C   UNL     1       8.752  -1.459  -4.788  0.00  0.00    +0.051 A 
ATOM     16  F   UNL     1       9.751  -2.439  -2.880  0.00  0.00    -0.202 F 
ATOM     17  F   UNL     1      12.077  -1.089  -3.377  0.00  0.00    -0.199 F 
ATOM     18  F   UNL     1      12.265   0.573  -5.542  0.00  0.00    -0.202 F 
ENDBRANCH   7  10
BRANCH   1  19
ATOM     19  C   UNL     1       3.648  -2.434  -6.391  0.00  0.00    +0.307 C 
BRANCH  19  20
ATOM     20  O   UNL     1       3.037  -1.707  -5.324  0.00  0.00    -0.484 OA
BRANCH  20  25
ATOM     21  C   UNL     1       0.606  -0.607  -1.055  0.00  0.00    +0.122 A 
ATOM     22  C   UNL     1       1.174   0.176  -2.065  0.00  0.00    +0.046 A 
ATOM     23  C   UNL     1       1.785  -0.403  -3.134  0.00  0.00    +0.017 A 
ATOM     24  C   UNL     1       1.847  -1.802  -3.229  0.00  0.00    +0.040 A 
ATOM     25  C   UNL     1       2.475  -2.434  -4.326  0.00  0.00    +0.132 A 
ATOM     26  C   UNL     1       2.498  -3.817  -4.352  0.00  0.00    +0.064 A 
ATOM     27  C   UNL     1       1.914  -4.535  -3.316  0.00  0.00    +0.086 A 
ATOM     28  N   UNL     1       1.333  -3.938  -2.302  0.00  0.00    -0.360 N 
ATOM     29  C   UNL     1       1.275  -2.604  -2.213  0.00  0.00    +0.053 A 
ATOM     30  C   UNL     1       0.655  -1.981  -1.117  0.00  0.00    +0.072 A 
ATOM     31  H   UNL     1       0.937  -4.477  -1.600  0.00  0.00    +0.165 HD
BRANCH  21  33
ATOM     32  C   UNL     1      -0.017   1.425   0.010  0.00  0.00    +0.277 C 
ATOM     33  O   UNL     1       0.002  -0.004   0.002  0.00  0.00    -0.495 OA
ENDBRANCH  21  33
ENDBRANCH  20  25
ENDBRANCH  19  20
ENDBRANCH   1  19
TORSDOF 5
