REMARK  Name = CHEMBL508776
REMARK  6 active torsions:
REMARK  status: ('A' for Active; 'I' for Inactive)
REMARK    1  A    between atoms: C_1  and  N_2
REMARK    2  A    between atoms: C_5  and  C_8
REMARK    3  A    between atoms: C_13  and  O_17
REMARK    4  A    between atoms: O_17  and  C_18
REMARK    5  A    between atoms: C_21  and  N_25
REMARK    6  A    between atoms: N_31  and  C_34
REMARK                            x       y       z     vdW  Elec       q    Type
REMARK                         _______ _______ _______ _____ _____    ______ ____
ROOT
ATOM      1  C   UNL     1       0.059 -10.047  -1.240  0.00  0.00    +0.164 A 
ATOM      2  C   UNL     1       0.262 -10.781  -0.081  0.00  0.00    +0.051 A 
ATOM      3  C   UNL     1       0.292 -12.161  -0.132  0.00  0.00    +0.027 A 
ATOM      4  C   UNL     1       0.120 -12.815  -1.345  0.00  0.00    +0.038 A 
ATOM      5  C   UNL     1      -0.084 -12.082  -2.506  0.00  0.00    +0.065 A 
ATOM      6  C   UNL     1      -0.120 -10.700  -2.453  0.00  0.00    +0.167 A 
ATOM      7  F   UNL     1      -0.323  -9.986  -3.582  0.00  0.00    -0.202 F 
ENDROOT
BRANCH   4   8
ATOM      8  N   UNL     1       0.152 -14.215  -1.397  0.00  0.00    -0.269 N 
ATOM      9  C   UNL     1       0.517 -14.839  -2.534  0.00  0.00    +0.314 C 
ATOM     10  O   UNL     1       0.681 -14.197  -3.554  0.00  0.00    -0.252 OA
ATOM     11  N   UNL     1       0.700 -16.174  -2.541  0.00  0.00    -0.208 N 
ATOM     12  C   UNL     1       0.421 -17.078  -1.416  0.00  0.00    +0.139 C 
ATOM     13  C   UNL     1       0.802 -18.470  -1.957  0.00  0.00    +0.135 C 
ATOM     14  N   UNL     1       1.256 -18.202  -3.330  0.00  0.00    -0.254 N 
ATOM     15  C   UNL     1       1.160 -16.889  -3.577  0.00  0.00    +0.317 C 
ATOM     16  O   UNL     1       1.466 -16.391  -4.642  0.00  0.00    -0.252 OA
ATOM     17  H   UNL     1      -0.089 -14.735  -0.614  0.00  0.00    +0.156 HD
BRANCH  14  18
ATOM     18  C   UNL     1       1.710 -19.166  -4.237  0.00  0.00    +0.038 A 
ATOM     19  C   UNL     1       2.300 -18.775  -5.431  0.00  0.00    +0.023 A 
ATOM     20  C   UNL     1       2.747 -19.729  -6.324  0.00  0.00    +0.002 A 
ATOM     21  C   UNL     1       2.607 -21.073  -6.029  0.00  0.00    +0.000 A 
ATOM     22  C   UNL     1       2.019 -21.466  -4.841  0.00  0.00    +0.002 A 
ATOM     23  C   UNL     1       1.576 -20.517  -3.941  0.00  0.00    +0.023 A 
ENDBRANCH  14  18
ENDBRANCH   4   8
BRANCH   1  24
ATOM     24  O   UNL     1       0.028  -8.689  -1.188  0.00  0.00    -0.452 OA
BRANCH  24  30
ATOM     25  C   UNL     1      -1.324  -4.031  -0.853  0.00  0.00    +0.018 A 
ATOM     26  C   UNL     1      -2.500  -4.649  -1.145  0.00  0.00    +0.044 A 
ATOM     27  C   UNL     1      -2.534  -6.043  -1.326  0.00  0.00    +0.082 A 
ATOM     28  C   UNL     1      -1.294  -6.702  -1.181  0.00  0.00    +0.080 A 
ATOM     29  S   UNL     1      -0.162  -5.385  -0.818  0.00  0.00    -0.083 S 
ATOM     30  C   UNL     1      -1.173  -8.072  -1.331  0.00  0.00    +0.146 A 
ATOM     31  C   UNL     1      -2.322  -8.800  -1.632  0.00  0.00    +0.067 A 
ATOM     32  C   UNL     1      -3.519  -8.115  -1.766  0.00  0.00    +0.115 A 
ATOM     33  N   UNL     1      -3.605  -6.817  -1.619  0.00  0.00    -0.254 NA
BRANCH  25  38
ATOM     34  C   UNL     1      -0.159   1.427   0.202  0.00  0.00    +0.105 C 
ATOM     35  N   UNL     1      -0.282  -0.023   0.002  0.00  0.00    -0.301 NA
ATOM     36  C   UNL     1      -0.397  -0.350  -1.429  0.00  0.00    +0.089 C 
ATOM     37  C   UNL     1      -0.199  -1.858  -1.602  0.00  0.00    +0.051 C 
ATOM     38  C   UNL     1      -1.071  -2.599  -0.627  0.00  0.00    -0.035 C 
ATOM     39  C   UNL     1      -1.618  -2.017   0.422  0.00  0.00    -0.007 C 
ATOM     40  C   UNL     1      -1.431  -0.561   0.741  0.00  0.00    +0.111 C 
ENDBRANCH  25  38
ENDBRANCH  24  30
ENDBRANCH   1  24
TORSDOF 5
