REMARK  Name = CHEMBL502232
REMARK  8 active torsions:
REMARK  status: ('A' for Active; 'I' for Inactive)
REMARK    1  A    between atoms: C_3  and  C_7
REMARK    2  A    between atoms: C_7  and  N_8
REMARK    3  A    between atoms: C_9  and  C_11
REMARK    4  A    between atoms: C_17  and  O_21
REMARK    5  A    between atoms: O_21  and  C_22
REMARK    6  A    between atoms: C_25  and  N_29
REMARK    7  A    between atoms: C_33  and  C_35
REMARK    8  A    between atoms: C_35  and  C_36
REMARK                            x       y       z     vdW  Elec       q    Type
REMARK                         _______ _______ _______ _____ _____    ______ ____
ROOT
ATOM      1  C   UNL     1       9.241   5.034   0.925  0.00  0.00    +0.164 A 
ATOM      2  C   UNL     1      10.233   5.487   1.781  0.00  0.00    +0.051 A 
ATOM      3  C   UNL     1      11.376   6.069   1.269  0.00  0.00    +0.027 A 
ATOM      4  C   UNL     1      11.532   6.202  -0.105  0.00  0.00    +0.038 A 
ATOM      5  C   UNL     1      10.539   5.748  -0.963  0.00  0.00    +0.065 A 
ATOM      6  C   UNL     1       9.398   5.160  -0.449  0.00  0.00    +0.167 A 
ATOM      7  F   UNL     1       8.434   4.714  -1.284  0.00  0.00    -0.202 F 
ENDROOT
BRANCH   4   8
ATOM      8  N   UNL     1      12.691   6.793  -0.624  0.00  0.00    -0.269 N 
ATOM      9  C   UNL     1      13.877   6.601  -0.014  0.00  0.00    +0.310 C 
ATOM     10  O   UNL     1      13.931   5.974   1.026  0.00  0.00    -0.252 OA
ATOM     11  N   UNL     1      15.003   7.104  -0.557  0.00  0.00    -0.240 N 
ATOM     12  C   UNL     1      16.190   6.912   0.053  0.00  0.00    +0.225 C 
ATOM     13  O   UNL     1      16.244   6.286   1.090  0.00  0.00    -0.275 OA
ATOM     14  H   UNL     1      12.639   7.341  -1.423  0.00  0.00    +0.156 HD
ATOM     15  H   UNL     1      14.960   7.604  -1.387  0.00  0.00    +0.159 HD
BRANCH  12  16
ATOM     16  C   UNL     1      17.449   7.474  -0.554  0.00  0.00    +0.131 C 
BRANCH  16  17
ATOM     17  C   UNL     1      18.628   7.121   0.316  0.00  0.00    -0.038 A 
ATOM     18  C   UNL     1      19.010   7.970   1.338  0.00  0.00    +0.007 A 
ATOM     19  C   UNL     1      20.090   7.647   2.137  0.00  0.00    +0.038 A 
ATOM     20  C   UNL     1      20.790   6.473   1.914  0.00  0.00    +0.123 A 
ATOM     21  C   UNL     1      20.405   5.624   0.890  0.00  0.00    +0.038 A 
ATOM     22  C   UNL     1      19.322   5.946   0.096  0.00  0.00    +0.007 A 
ATOM     23  F   UNL     1      21.846   6.157   2.695  0.00  0.00    -0.205 F 
ENDBRANCH  16  17
ENDBRANCH  12  16
ENDBRANCH   4   8
BRANCH   1  24
ATOM     24  O   UNL     1       8.116   4.460   1.431  0.00  0.00    -0.452 OA
BRANCH  24  31
ATOM     25  C   UNL     1       5.750   2.917   2.777  0.00  0.00    +0.067 A 
ATOM     26  C   UNL     1       5.102   1.795   3.202  0.00  0.00    +0.098 A 
ATOM     27  N   UNL     1       5.853   0.701   2.921  0.00  0.00    -0.345 N 
ATOM     28  H   UNL     1       5.598  -0.212   3.129  0.00  0.00    +0.167 HD
ATOM     29  C   UNL     1       7.025   1.065   2.299  0.00  0.00    +0.142 A 
ATOM     30  C   UNL     1       7.014   2.463   2.174  0.00  0.00    +0.073 A 
ATOM     31  C   UNL     1       8.095   3.110   1.565  0.00  0.00    +0.141 A 
ATOM     32  C   UNL     1       9.146   2.327   1.100  0.00  0.00    +0.067 A 
ATOM     33  C   UNL     1       9.085   0.954   1.255  0.00  0.00    +0.117 A 
ATOM     34  N   UNL     1       8.059   0.370   1.839  0.00  0.00    -0.237 NA
BRANCH  25  36
ATOM     35  N   UNL     1       4.089   4.565   3.473  0.00  0.00    -0.307 N 
ATOM     36  C   UNL     1       5.277   4.304   2.892  0.00  0.00    +0.247 C 
ATOM     37  O   UNL     1       5.957   5.216   2.462  0.00  0.00    -0.270 OA
ATOM     38  H   UNL     1       3.547   3.837   3.816  0.00  0.00    +0.149 HD
BRANCH  35  39
ATOM     39  C   UNL     1       3.618   5.947   3.588  0.00  0.00    +0.141 C 
BRANCH  39  42
ATOM     40  C   UNL     1       0.933   6.083   6.235  0.00  0.00    +0.020 A 
ATOM     41  C   UNL     1       2.190   6.070   5.650  0.00  0.00    +0.008 A 
ATOM     42  C   UNL     1       2.275   5.965   4.271  0.00  0.00    -0.012 A 
ATOM     43  C   UNL     1       1.111   5.877   3.529  0.00  0.00    +0.115 A 
ATOM     44  N   UNL     1      -0.068   5.893   4.120  0.00  0.00    -0.263 NA
ATOM     45  C   UNL     1      -0.186   5.991   5.429  0.00  0.00    +0.111 A 
ENDBRANCH  39  42
ENDBRANCH  35  39
ENDBRANCH  25  36
ENDBRANCH  24  31
ENDBRANCH   1  24
TORSDOF 8
