REMARK  Name = CHEMBL500834
REMARK  15 active torsions:
REMARK  status: ('A' for Active; 'I' for Inactive)
REMARK    1  A    between atoms: C_1  and  N_2
REMARK    2  A    between atoms: C_5  and  C_23
REMARK    3  A    between atoms: C_8  and  C_9
REMARK    4  A    between atoms: C_9  and  C_10
REMARK    5  A    between atoms: C_9  and  N_16
REMARK    6  A    between atoms: C_17  and  C_19
REMARK    7  A    between atoms: C_19  and  N_20
REMARK    8  A    between atoms: N_20  and  C_21
REMARK    9  A    between atoms: N_20  and  C_22
REMARK   10  A    between atoms: C_26  and  O_30
REMARK   11  A    between atoms: O_30  and  C_31
REMARK   12  A    between atoms: C_38  and  O_43
REMARK   13  A    between atoms: C_39  and  O_41
REMARK   14  A    between atoms: O_41  and  C_42
REMARK   15  A    between atoms: O_43  and  C_44
REMARK                            x       y       z     vdW  Elec       q    Type
REMARK                         _______ _______ _______ _____ _____    ______ ____
ROOT
ATOM      1  C   UNL     1      -0.116   1.333   0.109  0.00  0.00    +0.154 C 
ATOM      2  N   UNL     1      -0.008  -0.128   0.065  0.00  0.00    -0.298 N 
ATOM      3  C   UNL     1      -0.099  -0.775  -1.116  0.00  0.00    +0.262 A 
ATOM      4  O   UNL     1      -0.270  -0.158  -2.154  0.00  0.00    -0.267 OA
ATOM      5  C   UNL     1       0.011  -2.191  -1.122  0.00  0.00    +0.065 A 
ATOM      6  C   UNL     1       0.205  -2.838   0.086  0.00  0.00    +0.126 A 
ATOM      7  N   UNL     1       0.284  -2.125   1.210  0.00  0.00    -0.239 NA
ATOM      8  C   UNL     1       0.187  -0.822   1.204  0.00  0.00    +0.137 A 
ENDROOT
BRANCH   5   9
ATOM      9  C   UNL     1      -0.081  -2.956  -2.387  0.00  0.00    -0.008 A 
ATOM     10  C   UNL     1       0.897  -2.802  -3.370  0.00  0.00    +0.012 A 
ATOM     11  C   UNL     1       0.809  -3.515  -4.547  0.00  0.00    +0.050 A 
ATOM     12  C   UNL     1      -0.251  -4.386  -4.756  0.00  0.00    +0.164 A 
ATOM     13  C   UNL     1      -1.228  -4.543  -3.780  0.00  0.00    +0.166 A 
ATOM     14  C   UNL     1      -1.143  -3.836  -2.596  0.00  0.00    +0.050 A 
ATOM     15  F   UNL     1      -2.259  -5.391  -3.987  0.00  0.00    -0.202 F 
BRANCH  12  16
ATOM     16  O   UNL     1      -0.334  -5.087  -5.918  0.00  0.00    -0.452 OA
BRANCH  16  17
ATOM     17  C   UNL     1      -1.165  -4.623  -6.883  0.00  0.00    +0.139 A 
ATOM     18  C   UNL     1      -1.824  -3.414  -6.737  0.00  0.00    +0.066 A 
ATOM     19  C   UNL     1      -2.669  -2.965  -7.743  0.00  0.00    +0.115 A 
ATOM     20  N   UNL     1      -2.867  -3.656  -8.841  0.00  0.00    -0.255 NA
ATOM     21  C   UNL     1      -2.263  -4.832  -9.048  0.00  0.00    +0.078 A 
ATOM     22  C   UNL     1      -1.381  -5.356  -8.072  0.00  0.00    +0.046 A 
ATOM     23  C   UNL     1      -0.745  -6.586  -8.294  0.00  0.00    +0.063 A 
ATOM     24  C   UNL     1      -0.977  -7.267  -9.454  0.00  0.00    +0.162 A 
ATOM     25  C   UNL     1      -1.846  -6.748 -10.426  0.00  0.00    +0.164 A 
ATOM     26  C   UNL     1      -2.487  -5.559 -10.230  0.00  0.00    +0.077 A 
BRANCH  25  27
ATOM     27  O   UNL     1      -2.061  -7.444 -11.573  0.00  0.00    -0.491 OA
ATOM     28  C   UNL     1      -2.955  -6.866 -12.525  0.00  0.00    +0.277 C 
ENDBRANCH  25  27
BRANCH  24  29
ATOM     29  O   UNL     1      -0.361  -8.459  -9.670  0.00  0.00    -0.491 OA
ATOM     30  C   UNL     1       0.512  -8.934  -8.643  0.00  0.00    +0.277 C 
ENDBRANCH  24  29
ENDBRANCH  16  17
ENDBRANCH  12  16
ENDBRANCH   5   9
BRANCH   8  31
ATOM     31  C   UNL     1       0.291  -0.074   2.508  0.00  0.00    +0.169 C 
BRANCH  31  32
ATOM     32  C   UNL     1      -1.050  -0.076   3.196  0.00  0.00    -0.020 A 
ATOM     33  C   UNL     1      -1.458  -1.187   3.911  0.00  0.00    +0.006 A 
ATOM     34  C   UNL     1      -2.688  -1.189   4.543  0.00  0.00    +0.000 A 
ATOM     35  C   UNL     1      -3.509  -0.080   4.459  0.00  0.00    +0.000 A 
ATOM     36  C   UNL     1      -3.101   1.031   3.745  0.00  0.00    +0.000 A 
ATOM     37  C   UNL     1      -1.869   1.034   3.117  0.00  0.00    +0.006 A 
ENDBRANCH  31  32
BRANCH  31  38
ATOM     38  N   UNL     1       1.282  -0.726   3.368  0.00  0.00    -0.303 N 
ATOM     39  C   UNL     1       1.851  -0.042   4.379  0.00  0.00    +0.197 C 
ATOM     40  O   UNL     1       1.544   1.115   4.578  0.00  0.00    -0.278 OA
ATOM     41  H   UNL     1       1.528  -1.651   3.208  0.00  0.00    +0.150 HD
BRANCH  39  42
ATOM     42  C   UNL     1       2.871  -0.713   5.263  0.00  0.00    +0.018 C 
BRANCH  42  43
ATOM     43  N   UNL     1       3.337   0.238   6.281  0.00  0.00    +0.382 N 
ATOM     44  C   UNL     1       4.240  -0.449   7.215  0.00  0.00    -0.096 C 
ATOM     45  C   UNL     1       4.054   1.342   5.629  0.00  0.00    -0.096 C 
ATOM     46  H   UNL     1       2.545   0.604   6.787  0.00  0.00    -0.082 HD
ENDBRANCH  42  43
ENDBRANCH  39  42
ENDBRANCH  31  38
ENDBRANCH   8  31
TORSDOF 10
