REMARK  Name = CHEMBL253656
REMARK  7 active torsions:
REMARK  status: ('A' for Active; 'I' for Inactive)
REMARK    1  A    between atoms: C_6  and  C_7
REMARK    2  A    between atoms: C_7  and  C_8
REMARK    3  A    between atoms: N_13  and  C_14
REMARK    4  A    between atoms: C_17  and  O_21
REMARK    5  A    between atoms: O_21  and  C_22
REMARK    6  A    between atoms: C_24  and  C_31
REMARK    7  A    between atoms: C_31  and  N_32
REMARK                            x       y       z     vdW  Elec       q    Type
REMARK                         _______ _______ _______ _____ _____    ______ ____
ROOT
ATOM      1  C   UNL     1      -5.032  -3.838  -4.200  0.00  0.00    +0.038 A 
ATOM      2  C   UNL     1      -4.120  -3.345  -5.123  0.00  0.00    +0.027 A 
ATOM      3  C   UNL     1      -4.385  -3.439  -6.475  0.00  0.00    +0.051 A 
ATOM      4  C   UNL     1      -5.562  -4.027  -6.912  0.00  0.00    +0.166 A 
ATOM      5  C   UNL     1      -6.476  -4.521  -5.990  0.00  0.00    +0.167 A 
ATOM      6  C   UNL     1      -6.209  -4.431  -4.636  0.00  0.00    +0.065 A 
ATOM      7  F   UNL     1      -7.624  -5.094  -6.415  0.00  0.00    -0.202 F 
ENDROOT
BRANCH   1  13
ATOM      8  C   UNL     1      -5.197  -5.667   0.142  0.00  0.00    +0.225 C 
ATOM      9  O   UNL     1      -5.852  -6.595  -0.280  0.00  0.00    -0.275 OA
ATOM     10  N   UNL     1      -4.809  -4.681  -0.692  0.00  0.00    -0.240 N 
ATOM     11  C   UNL     1      -5.150  -4.727  -1.995  0.00  0.00    +0.310 C 
ATOM     12  O   UNL     1      -5.808  -5.658  -2.418  0.00  0.00    -0.252 OA
ATOM     13  N   UNL     1      -4.763  -3.742  -2.828  0.00  0.00    -0.269 N 
ATOM     14  H   UNL     1      -4.284  -3.939  -0.354  0.00  0.00    +0.159 HD
ATOM     15  H   UNL     1      -4.297  -2.966  -2.479  0.00  0.00    +0.156 HD
BRANCH   8  16
ATOM     16  C   UNL     1      -4.815  -5.615   1.599  0.00  0.00    +0.131 C 
BRANCH  16  22
ATOM     17  C   UNL     1      -4.613  -7.982   2.388  0.00  0.00    +0.007 A 
ATOM     18  C   UNL     1      -5.119  -9.092   3.036  0.00  0.00    +0.038 A 
ATOM     19  C   UNL     1      -6.381  -9.047   3.604  0.00  0.00    +0.123 A 
ATOM     20  C   UNL     1      -7.135  -7.889   3.522  0.00  0.00    +0.038 A 
ATOM     21  C   UNL     1      -6.627  -6.779   2.873  0.00  0.00    +0.007 A 
ATOM     22  C   UNL     1      -5.367  -6.826   2.306  0.00  0.00    -0.038 A 
ATOM     23  F   UNL     1      -6.876 -10.133   4.238  0.00  0.00    -0.205 F 
ENDBRANCH  16  22
ENDBRANCH   8  16
ENDBRANCH   1  13
BRANCH   4  24
ATOM     24  O   UNL     1      -5.823  -4.119  -8.244  0.00  0.00    -0.433 OA
BRANCH  24  25
ATOM     25  C   UNL     1      -6.556  -3.136  -8.817  0.00  0.00    +0.248 A 
ATOM     26  C   UNL     1      -6.771  -3.127 -10.212  0.00  0.00    +0.129 A 
ATOM     27  C   UNL     1      -6.382  -3.957 -11.246  0.00  0.00    -0.032 A 
ATOM     28  C   UNL     1      -6.913  -3.418 -12.419  0.00  0.00    +0.024 A 
ATOM     29  C   UNL     1      -7.602  -2.294 -12.088  0.00  0.00    +0.113 A 
ATOM     30  N   UNL     1      -7.526  -2.105 -10.758  0.00  0.00    -0.233 N 
ATOM     31  N   UNL     1      -8.040  -1.126  -9.897  0.00  0.00    -0.155 NA
ATOM     32  C   UNL     1      -7.802  -1.194  -8.616  0.00  0.00    +0.247 A 
ATOM     33  N   UNL     1      -7.081  -2.176  -8.077  0.00  0.00    -0.198 NA
BRANCH  27  34
ATOM     34  C   UNL     1      -5.544  -5.204 -11.130  0.00  0.00    -0.040 C 
BRANCH  34  35
ATOM     35  N   UNL     1      -4.143  -4.832 -10.889  0.00  0.00    +0.385 N 
ATOM     36  C   UNL     1      -3.609  -4.143 -12.072  0.00  0.00    -0.050 C 
ATOM     37  C   UNL     1      -2.150  -3.757 -11.819  0.00  0.00    +0.141 C 
ATOM     38  O   UNL     1      -1.397  -4.933 -11.512  0.00  0.00    -0.383 OA
ATOM     39  C   UNL     1      -1.893  -5.653 -10.380  0.00  0.00    +0.141 C 
ATOM     40  C   UNL     1      -3.352  -6.043 -10.630  0.00  0.00    -0.050 C 
ATOM     41  H   UNL     1      -4.090  -4.219 -10.090  0.00  0.00    -0.081 HD
ENDBRANCH  34  35
ENDBRANCH  27  34
ENDBRANCH  24  25
ENDBRANCH   4  24
TORSDOF 7
