REMARK  Name = CHEMBL1099204
REMARK  4 active torsions:
REMARK  status: ('A' for Active; 'I' for Inactive)
REMARK    1  A    between atoms: C_3  and  C_26
REMARK    2  A    between atoms: N_7  and  C_8
REMARK    3  A    between atoms: C_11  and  O_15
REMARK    4  A    between atoms: O_15  and  C_16
REMARK                            x       y       z     vdW  Elec       q    Type
REMARK                         _______ _______ _______ _____ _____    ______ ____
ROOT
ATOM      1  C   UNL     1       0.454   1.282   1.628  0.00  0.00    +0.021 A 
ATOM      2  C   UNL     1       1.412   1.940   0.877  0.00  0.00    +0.018 A 
ATOM      3  C   UNL     1       2.396   1.177   0.239  0.00  0.00    +0.077 A 
ATOM      4  C   UNL     1       2.370  -0.221   0.387  0.00  0.00    +0.135 A 
ATOM      5  N   UNL     1       1.429  -0.799   1.117  0.00  0.00    -0.239 NA
ATOM      6  C   UNL     1       0.494  -0.097   1.726  0.00  0.00    +0.113 A 
ATOM      7  N   UNL     1       3.332  -0.997  -0.234  0.00  0.00    -0.299 N 
ATOM      8  H   UNL     1       4.078  -0.574  -0.687  0.00  0.00    +0.154 HD
ENDROOT
BRANCH   3   9
ATOM      9  C   UNL     1       3.441   1.826  -0.574  0.00  0.00    +0.253 C 
ATOM     10  O   UNL     1       4.351   1.165  -1.035  0.00  0.00    -0.270 OA
ATOM     11  N   UNL     1       3.387   3.152  -0.805  0.00  0.00    -0.266 N 
ATOM     12  C   UNL     1       4.315   3.750  -1.657  0.00  0.00    +0.125 A 
ATOM     13  C   UNL     1       4.327   5.133  -1.801  0.00  0.00    +0.046 A 
ATOM     14  C   UNL     1       5.252   5.713  -2.650  0.00  0.00    +0.043 A 
ATOM     15  C   UNL     1       6.139   4.886  -3.329  0.00  0.00    +0.142 A 
ATOM     16  C   UNL     1       6.069   3.518  -3.138  0.00  0.00    +0.151 A 
ATOM     17  N   UNL     1       5.178   2.995  -2.317  0.00  0.00    -0.237 NA
ATOM     18  F   UNL     1       7.058   5.412  -4.168  0.00  0.00    -0.204 F 
ATOM     19  H   UNL     1       2.703   3.692  -0.378  0.00  0.00    +0.157 HD
ENDBRANCH   3   9
BRANCH   7  20
ATOM     20  C   UNL     1       3.230  -2.393  -0.209  0.00  0.00    +0.035 A 
ATOM     21  C   UNL     1       1.980  -2.998  -0.242  0.00  0.00    +0.027 A 
ATOM     22  C   UNL     1       1.878  -4.375  -0.217  0.00  0.00    +0.051 A 
ATOM     23  C   UNL     1       3.023  -5.155  -0.159  0.00  0.00    +0.164 A 
ATOM     24  C   UNL     1       4.274  -4.551  -0.126  0.00  0.00    +0.167 A 
ATOM     25  C   UNL     1       4.377  -3.173  -0.156  0.00  0.00    +0.065 A 
ATOM     26  F   UNL     1       5.390  -5.311  -0.069  0.00  0.00    -0.202 F 
BRANCH  23  27
ATOM     27  O   UNL     1       2.922  -6.511  -0.134  0.00  0.00    -0.452 OA
BRANCH  27  28
ATOM     28  C   UNL     1       3.014  -7.135   1.067  0.00  0.00    +0.141 A 
ATOM     29  C   UNL     1       3.093  -6.407   2.248  0.00  0.00    +0.066 A 
ATOM     30  C   UNL     1       3.186  -7.079   3.454  0.00  0.00    +0.117 A 
ATOM     31  N   UNL     1       3.200  -8.394   3.512  0.00  0.00    -0.237 NA
ATOM     32  C   UNL     1       3.127  -9.144   2.418  0.00  0.00    +0.142 A 
ATOM     33  C   UNL     1       3.025  -8.534   1.156  0.00  0.00    +0.061 A 
ATOM     34  C   UNL     1       2.956  -9.621   0.179  0.00  0.00    +0.032 A 
ATOM     35  C   UNL     1       3.011 -10.770   0.870  0.00  0.00    +0.085 A 
ATOM     36  N   UNL     1       3.122 -10.502   2.209  0.00  0.00    -0.346 N 
ATOM     37  H   UNL     1       3.178 -11.173   2.908  0.00  0.00    +0.167 HD
ENDBRANCH  27  28
ENDBRANCH  23  27
ENDBRANCH   7  20
TORSDOF 4
