REMARK  Name = CHEMBL518209
REMARK  7 active torsions:
REMARK  status: ('A' for Active; 'I' for Inactive)
REMARK    1  A    between atoms: C_1  and  N_2
REMARK    2  A    between atoms: C_4  and  C_7
REMARK    3  A    between atoms: C_12  and  O_16
REMARK    4  A    between atoms: O_16  and  C_17
REMARK    5  A    between atoms: C_20  and  N_24
REMARK    6  A    between atoms: C_25  and  C_27
REMARK    7  A    between atoms: N_30  and  C_33
REMARK                            x       y       z     vdW  Elec       q    Type
REMARK                         _______ _______ _______ _____ _____    ______ ____
ROOT
ATOM      1  C   UNL     1       0.166  -6.685  -6.662  0.00  0.00    +0.164 A 
ATOM      2  C   UNL     1       0.068  -8.002  -6.238  0.00  0.00    +0.051 A 
ATOM      3  C   UNL     1       0.041  -9.026  -7.165  0.00  0.00    +0.027 A 
ATOM      4  C   UNL     1       0.113  -8.738  -8.521  0.00  0.00    +0.036 A 
ATOM      5  C   UNL     1       0.211  -7.420  -8.946  0.00  0.00    +0.065 A 
ATOM      6  C   UNL     1       0.232  -6.394  -8.019  0.00  0.00    +0.167 A 
ATOM      7  F   UNL     1       0.322  -5.111  -8.432  0.00  0.00    -0.202 F 
ENDROOT
BRANCH   4   8
ATOM      8  N   UNL     1       0.087  -9.777  -9.460  0.00  0.00    -0.285 N 
ATOM      9  C   UNL     1      -0.368  -9.546 -10.708  0.00  0.00    +0.229 C 
ATOM     10  O   UNL     1      -0.858  -8.472 -10.986  0.00  0.00    -0.275 OA
ATOM     11  H   UNL     1       0.397 -10.662  -9.213  0.00  0.00    +0.155 HD
BRANCH   9  12
ATOM     12  C   UNL     1      -0.269 -10.623 -11.757  0.00  0.00    +0.163 C 
ATOM     13  C   UNL     1      -0.938 -10.161 -13.072  0.00  0.00    +0.041 C 
ATOM     14  C   UNL     1      -1.577 -11.473 -13.578  0.00  0.00    +0.115 C 
ATOM     15  N   UNL     1      -1.793 -12.292 -12.380  0.00  0.00    -0.271 N 
ATOM     16  C   UNL     1      -1.066 -11.841 -11.343  0.00  0.00    +0.232 C 
ATOM     17  O   UNL     1      -1.052 -12.337 -10.236  0.00  0.00    -0.274 OA
BRANCH  15  18
ATOM     18  C   UNL     1      -2.646 -13.400 -12.323  0.00  0.00    +0.036 A 
ATOM     19  C   UNL     1      -2.876 -14.040 -11.113  0.00  0.00    +0.023 A 
ATOM     20  C   UNL     1      -3.718 -15.133 -11.060  0.00  0.00    +0.002 A 
ATOM     21  C   UNL     1      -4.331 -15.592 -12.212  0.00  0.00    +0.000 A 
ATOM     22  C   UNL     1      -4.103 -14.957 -13.419  0.00  0.00    +0.002 A 
ATOM     23  C   UNL     1      -3.267 -13.859 -13.477  0.00  0.00    +0.023 A 
ENDBRANCH  15  18
ENDBRANCH   9  12
ENDBRANCH   4   8
BRANCH   1  24
ATOM     24  O   UNL     1       0.192  -5.677  -5.749  0.00  0.00    -0.452 OA
BRANCH  24  30
ATOM     25  C   UNL     1      -0.956  -2.311  -2.435  0.00  0.00    +0.040 A 
ATOM     26  C   UNL     1      -2.166  -2.598  -2.980  0.00  0.00    +0.046 A 
ATOM     27  C   UNL     1      -2.266  -3.555  -4.007  0.00  0.00    +0.082 A 
ATOM     28  C   UNL     1      -1.048  -4.155  -4.394  0.00  0.00    +0.080 A 
ATOM     29  S   UNL     1       0.151  -3.376  -3.344  0.00  0.00    -0.082 S 
ATOM     30  C   UNL     1      -0.989  -5.112  -5.390  0.00  0.00    +0.146 A 
ATOM     31  C   UNL     1      -2.180  -5.478  -6.015  0.00  0.00    +0.067 A 
ATOM     32  C   UNL     1      -3.353  -4.866  -5.606  0.00  0.00    +0.115 A 
ATOM     33  N   UNL     1      -3.380  -3.962  -4.659  0.00  0.00    -0.254 NA
BRANCH  25  37
ATOM     34  C   UNL     1       1.503   0.441   0.940  0.00  0.00    +0.149 C 
ATOM     35  N   UNL     1       0.443  -0.146   0.116  0.00  0.00    -0.341 N 
ATOM     36  C   UNL     1       0.604  -1.095  -0.853  0.00  0.00    +0.113 A 
ATOM     37  C   UNL     1      -0.634  -1.349  -1.359  0.00  0.00    +0.071 A 
ATOM     38  N   UNL     1      -1.514  -0.564  -0.703  0.00  0.00    -0.345 N 
ATOM     39  C   UNL     1      -0.875   0.150   0.180  0.00  0.00    +0.174 A 
ATOM     40  H   UNL     1      -2.471  -0.538  -0.861  0.00  0.00    +0.167 HD
ENDBRANCH  25  37
ENDBRANCH  24  30
ENDBRANCH   1  24
TORSDOF 6
