REMARK  Name = CHEMBL448993
REMARK  7 active torsions:
REMARK  status: ('A' for Active; 'I' for Inactive)
REMARK    1  A    between atoms: C_1  and  C_2
REMARK    2  A    between atoms: C_2  and  C_4
REMARK    3  A    between atoms: C_8  and  C_10
REMARK    4  A    between atoms: C_15  and  O_19
REMARK    5  A    between atoms: O_19  and  C_20
REMARK    6  A    between atoms: C_23  and  N_27
REMARK    7  A    between atoms: N_33  and  C_36
REMARK                            x       y       z     vdW  Elec       q    Type
REMARK                         _______ _______ _______ _____ _____    ______ ____
ROOT
ATOM      1  C   UNL     1       0.225 -10.015  -0.190  0.00  0.00    +0.164 A 
ATOM      2  C   UNL     1      -0.200 -10.830  -1.229  0.00  0.00    +0.051 A 
ATOM      3  C   UNL     1      -0.193 -12.203  -1.077  0.00  0.00    +0.027 A 
ATOM      4  C   UNL     1       0.240 -12.768   0.115  0.00  0.00    +0.038 A 
ATOM      5  C   UNL     1       0.665 -11.953   1.155  0.00  0.00    +0.065 A 
ATOM      6  C   UNL     1       0.663 -10.579   1.002  0.00  0.00    +0.167 A 
ATOM      7  F   UNL     1       1.081  -9.785   2.011  0.00  0.00    -0.202 F 
ENDROOT
BRANCH   4   8
ATOM      8  N   UNL     1       0.247 -14.161   0.268  0.00  0.00    -0.269 N 
ATOM      9  C   UNL     1       0.138 -14.704   1.496  0.00  0.00    +0.314 C 
ATOM     10  O   UNL     1       0.176 -13.993   2.481  0.00  0.00    -0.252 OA
ATOM     11  N   UNL     1      -0.014 -16.037   1.633  0.00  0.00    -0.208 N 
ATOM     12  C   UNL     1       0.043 -17.017   0.539  0.00  0.00    +0.139 C 
ATOM     13  C   UNL     1      -0.190 -18.369   1.241  0.00  0.00    +0.135 C 
ATOM     14  N   UNL     1      -0.354 -18.006   2.657  0.00  0.00    -0.254 N 
ATOM     15  C   UNL     1      -0.235 -16.678   2.788  0.00  0.00    +0.317 C 
ATOM     16  O   UNL     1      -0.324 -16.107   3.857  0.00  0.00    -0.252 OA
ATOM     17  H   UNL     1       0.330 -14.734  -0.510  0.00  0.00    +0.156 HD
BRANCH  14  18
ATOM     18  C   UNL     1      -0.592 -18.905   3.702  0.00  0.00    +0.038 A 
ATOM     19  C   UNL     1      -0.929 -18.433   4.964  0.00  0.00    +0.023 A 
ATOM     20  C   UNL     1      -1.163 -19.324   5.993  0.00  0.00    +0.002 A 
ATOM     21  C   UNL     1      -1.060 -20.684   5.769  0.00  0.00    +0.000 A 
ATOM     22  C   UNL     1      -0.724 -21.158   4.514  0.00  0.00    +0.002 A 
ATOM     23  C   UNL     1      -0.496 -20.273   3.479  0.00  0.00    +0.023 A 
ENDBRANCH  14  18
ENDBRANCH   4   8
BRANCH   1  24
ATOM     24  O   UNL     1       0.217  -8.663  -0.340  0.00  0.00    -0.452 OA
BRANCH  24  30
ATOM     25  C   UNL     1       1.381  -4.035  -1.267  0.00  0.00    +0.022 A 
ATOM     26  C   UNL     1       2.601  -4.623  -1.184  0.00  0.00    +0.044 A 
ATOM     27  C   UNL     1       2.700  -6.003  -0.919  0.00  0.00    +0.082 A 
ATOM     28  C   UNL     1       1.470  -6.676  -0.758  0.00  0.00    +0.080 A 
ATOM     29  S   UNL     1       0.263  -5.393  -0.968  0.00  0.00    -0.083 S 
ATOM     30  C   UNL     1       1.409  -8.032  -0.493  0.00  0.00    +0.146 A 
ATOM     31  C   UNL     1       2.611  -8.731  -0.388  0.00  0.00    +0.067 A 
ATOM     32  C   UNL     1       3.795  -8.033  -0.553  0.00  0.00    +0.115 A 
ATOM     33  N   UNL     1       3.823  -6.748  -0.803  0.00  0.00    -0.254 NA
BRANCH  25  38
ATOM     34  C   UNL     1      -0.566  -0.858  -1.828  0.00  0.00    +0.018 A 
ATOM     35  C   UNL     1       0.473   0.056  -2.037  0.00  0.00    +0.011 A 
ATOM     36  C   UNL     1       1.786  -0.367  -1.994  0.00  0.00    +0.001 A 
ATOM     37  C   UNL     1       2.084  -1.693  -1.745  0.00  0.00    +0.009 A 
ATOM     38  C   UNL     1       1.058  -2.616  -1.534  0.00  0.00    -0.011 A 
ATOM     39  C   UNL     1      -0.270  -2.198  -1.569  0.00  0.00    +0.020 A 
BRANCH  34  41
ATOM     40  C   UNL     1      -2.283   1.039  -2.153  0.00  0.00    +0.091 C 
ATOM     41  C   UNL     1      -1.966  -0.407  -1.874  0.00  0.00    +0.160 C 
ATOM     42  O   UNL     1      -2.865  -1.200  -1.687  0.00  0.00    -0.292 OA
ENDBRANCH  34  41
ENDBRANCH  25  38
ENDBRANCH  24  30
ENDBRANCH   1  24
TORSDOF 6
