REMARK  Name = CHEMBL404881
REMARK  11 active torsions:
REMARK  status: ('A' for Active; 'I' for Inactive)
REMARK    1  A    between atoms: C_1  and  O_2
REMARK    2  A    between atoms: O_2  and  C_3
REMARK    3  A    between atoms: C_6  and  O_15
REMARK    4  A    between atoms: C_12  and  O_13
REMARK    5  A    between atoms: O_13  and  C_14
REMARK    6  A    between atoms: O_15  and  C_16
REMARK    7  A    between atoms: C_19  and  N_23
REMARK    8  A    between atoms: N_23  and  C_24
REMARK    9  A    between atoms: C_24  and  N_26
REMARK   10  A    between atoms: C_27  and  C_29
REMARK   11  A    between atoms: C_29  and  C_30
REMARK                            x       y       z     vdW  Elec       q    Type
REMARK                         _______ _______ _______ _____ _____    ______ ____
ROOT
ATOM      1  C   UNL     1       2.964   2.195  -5.231  0.00  0.00    +0.164 A 
ATOM      2  C   UNL     1       3.123   1.478  -6.407  0.00  0.00    +0.051 A 
ATOM      3  C   UNL     1       3.727   2.069  -7.500  0.00  0.00    +0.027 A 
ATOM      4  C   UNL     1       4.176   3.381  -7.421  0.00  0.00    +0.036 A 
ATOM      5  C   UNL     1       4.018   4.099  -6.243  0.00  0.00    +0.065 A 
ATOM      6  C   UNL     1       3.408   3.509  -5.152  0.00  0.00    +0.167 A 
ATOM      7  F   UNL     1       3.249   4.208  -4.007  0.00  0.00    -0.202 F 
ENDROOT
BRANCH   4   8
ATOM      8  N   UNL     1       4.790   3.978  -8.529  0.00  0.00    -0.297 N 
ATOM      9  H   UNL     1       5.612   4.481  -8.415  0.00  0.00    +0.154 HD
BRANCH   8  10
ATOM     10  C   UNL     1       4.238   3.856  -9.752  0.00  0.00    +0.141 C 
ATOM     11  S   UNL     1       2.853   2.875  -9.972  0.00  0.00    -0.018 S 
BRANCH  10  12
ATOM     12  N   UNL     1       4.777   4.507 -10.803  0.00  0.00    -0.267 N 
ATOM     13  C   UNL     1       4.225   4.385 -12.026  0.00  0.00    +0.223 C 
ATOM     14  O   UNL     1       3.244   3.689 -12.182  0.00  0.00    -0.275 OA
ATOM     15  H   UNL     1       5.562   5.063 -10.678  0.00  0.00    +0.157 HD
BRANCH  13  16
ATOM     16  C   UNL     1       4.827   5.112 -13.200  0.00  0.00    +0.131 C 
BRANCH  16  17
ATOM     17  C   UNL     1       4.028   4.809 -14.442  0.00  0.00    -0.039 A 
ATOM     18  C   UNL     1       4.362   3.725 -15.231  0.00  0.00    +0.004 A 
ATOM     19  C   UNL     1       3.629   3.448 -16.370  0.00  0.00    +0.000 A 
ATOM     20  C   UNL     1       2.562   4.255 -16.719  0.00  0.00    +0.000 A 
ATOM     21  C   UNL     1       2.228   5.339 -15.929  0.00  0.00    +0.000 A 
ATOM     22  C   UNL     1       2.958   5.614 -14.788  0.00  0.00    +0.004 A 
ENDBRANCH  16  17
ENDBRANCH  13  16
ENDBRANCH  10  12
ENDBRANCH   8  10
ENDBRANCH   4   8
BRANCH   1  23
ATOM     23  O   UNL     1       2.368   1.613  -4.155  0.00  0.00    -0.452 OA
BRANCH  23  27
ATOM     24  C   UNL     1       0.247  -0.312  -1.078  0.00  0.00    +0.162 A 
ATOM     25  C   UNL     1       0.966   0.292  -2.068  0.00  0.00    +0.063 A 
ATOM     26  C   UNL     1       0.360   1.275  -2.866  0.00  0.00    +0.046 A 
ATOM     27  C   UNL     1       1.073   1.921  -3.901  0.00  0.00    +0.139 A 
ATOM     28  C   UNL     1       0.408   2.880  -4.645  0.00  0.00    +0.066 A 
ATOM     29  C   UNL     1      -0.919   3.175  -4.361  0.00  0.00    +0.115 A 
ATOM     30  N   UNL     1      -1.571   2.569  -3.397  0.00  0.00    -0.255 NA
ATOM     31  C   UNL     1      -0.991   1.632  -2.638  0.00  0.00    +0.078 A 
ATOM     32  C   UNL     1      -1.705   0.992  -1.611  0.00  0.00    +0.077 A 
ATOM     33  C   UNL     1      -1.093   0.035  -0.854  0.00  0.00    +0.164 A 
BRANCH  24  35
ATOM     34  C   UNL     1       2.201  -1.573  -0.583  0.00  0.00    +0.277 C 
ATOM     35  O   UNL     1       0.834  -1.264  -0.305  0.00  0.00    -0.491 OA
ENDBRANCH  24  35
BRANCH  33  36
ATOM     36  O   UNL     1      -1.789  -0.585   0.135  0.00  0.00    -0.491 OA
ATOM     37  C   UNL     1      -3.151  -0.189   0.316  0.00  0.00    +0.277 C 
ENDBRANCH  33  36
ENDBRANCH  23  27
ENDBRANCH   1  23
TORSDOF 9
