REMARK  Name = CHEMBL1095034
REMARK  8 active torsions:
REMARK  status: ('A' for Active; 'I' for Inactive)
REMARK    1  A    between atoms: C_1  and  N_2
REMARK    2  A    between atoms: C_6  and  C_7
REMARK    3  A    between atoms: C_12  and  O_16
REMARK    4  A    between atoms: O_16  and  C_17
REMARK    5  A    between atoms: C_20  and  N_24
REMARK    6  A    between atoms: C_25  and  C_27
REMARK    7  A    between atoms: N_30  and  C_36
REMARK    8  A    between atoms: C_31  and  C_32
REMARK                            x       y       z     vdW  Elec       q    Type
REMARK                         _______ _______ _______ _____ _____    ______ ____
ROOT
ATOM      1  C   UNL     1       0.694   3.512   7.248  0.00  0.00    +0.164 A 
ATOM      2  C   UNL     1       0.471   2.728   8.370  0.00  0.00    +0.051 A 
ATOM      3  C   UNL     1       0.510   3.296   9.629  0.00  0.00    +0.027 A 
ATOM      4  C   UNL     1       0.771   4.653   9.771  0.00  0.00    +0.037 A 
ATOM      5  C   UNL     1       0.994   5.438   8.648  0.00  0.00    +0.065 A 
ATOM      6  C   UNL     1       0.961   4.868   7.389  0.00  0.00    +0.167 A 
ATOM      7  F   UNL     1       1.183   5.630   6.296  0.00  0.00    -0.202 F 
ENDROOT
BRANCH   4   8
ATOM      8  N   UNL     1       0.809   5.229  11.047  0.00  0.00    -0.281 N 
ATOM      9  C   UNL     1       0.359   6.485  11.233  0.00  0.00    +0.252 C 
ATOM     10  O   UNL     1      -0.013   7.145  10.282  0.00  0.00    -0.270 OA
ATOM     11  H   UNL     1       1.160   4.723  11.797  0.00  0.00    +0.155 HD
BRANCH   9  12
ATOM     12  C   UNL     1       0.319   7.060  12.590  0.00  0.00    +0.087 A 
ATOM     13  C   UNL     1       0.723   6.421  13.784  0.00  0.00    +0.148 A 
ATOM     14  N   UNL     1       0.535   7.254  14.771  0.00  0.00    -0.174 NA
ATOM     15  N   UNL     1       0.011   8.448  14.265  0.00  0.00    -0.227 N 
ATOM     16  C   UNL     1      -0.114   8.326  12.931  0.00  0.00    +0.159 A 
BRANCH  15  17
ATOM     17  C   UNL     1      -0.322   9.581  15.019  0.00  0.00    +0.066 A 
ATOM     18  C   UNL     1      -0.141  10.850  14.485  0.00  0.00    +0.028 A 
ATOM     19  C   UNL     1      -0.471  11.965  15.231  0.00  0.00    +0.002 A 
ATOM     20  C   UNL     1      -0.982  11.819  16.507  0.00  0.00    +0.000 A 
ATOM     21  C   UNL     1      -1.163  10.556  17.041  0.00  0.00    +0.002 A 
ATOM     22  C   UNL     1      -0.841   9.437  16.299  0.00  0.00    +0.028 A 
ENDBRANCH  15  17
BRANCH  16  23
ATOM     23  C   UNL     1      -0.634   9.377  11.983  0.00  0.00    +0.435 C 
ATOM     24  F   UNL     1       0.429  10.164  11.530  0.00  0.00    -0.164 F 
ATOM     25  F   UNL     1      -1.254   8.756  10.893  0.00  0.00    -0.164 F 
ATOM     26  F   UNL     1      -1.562  10.185  12.648  0.00  0.00    -0.164 F 
ENDBRANCH  16  23
ENDBRANCH   9  12
ENDBRANCH   4   8
BRANCH   1  27
ATOM     27  O   UNL     1       0.656   2.951   6.009  0.00  0.00    -0.452 OA
BRANCH  27  33
ATOM     28  C   UNL     1       1.677   0.554   1.905  0.00  0.00    +0.057 A 
ATOM     29  C   UNL     1       2.910   0.713   2.457  0.00  0.00    +0.047 A 
ATOM     30  C   UNL     1       3.048   1.379   3.688  0.00  0.00    +0.082 A 
ATOM     31  C   UNL     1       1.844   1.841   4.263  0.00  0.00    +0.080 A 
ATOM     32  S   UNL     1       0.606   1.348   3.091  0.00  0.00    -0.080 S 
ATOM     33  C   UNL     1       1.823   2.514   5.472  0.00  0.00    +0.146 A 
ATOM     34  C   UNL     1       3.037   2.728   6.120  0.00  0.00    +0.067 A 
ATOM     35  C   UNL     1       4.195   2.258   5.522  0.00  0.00    +0.115 A 
ATOM     36  N   UNL     1       4.186   1.625   4.377  0.00  0.00    -0.254 NA
BRANCH  28  42
ATOM     37  C   UNL     1      -1.171  -0.315   1.042  0.00  0.00    +0.150 C 
ATOM     38  N   UNL     1       0.058  -0.485   0.264  0.00  0.00    -0.333 N 
ATOM     39  C   UNL     1       0.164  -1.049  -0.979  0.00  0.00    +0.107 A 
ATOM     40  C   UNL     1       1.468  -1.005  -1.324  0.00  0.00    +0.131 A 
ATOM     41  N   UNL     1       2.150  -0.431  -0.327  0.00  0.00    -0.235 NA
ATOM     42  C   UNL     1       1.316  -0.105   0.638  0.00  0.00    +0.147 A 
ENDBRANCH  28  42
ENDBRANCH  27  33
ENDBRANCH   1  27
TORSDOF 7
