REMARK  Name = CHEMBL401344
REMARK  11 active torsions:
REMARK  status: ('A' for Active; 'I' for Inactive)
REMARK    1  A    between atoms: C_1  and  C_2
REMARK    2  A    between atoms: C_3  and  O_33
REMARK    3  A    between atoms: C_7  and  O_11
REMARK    4  A    between atoms: O_11  and  C_12
REMARK    5  A    between atoms: C_15  and  N_19
REMARK    6  A    between atoms: C_20  and  C_22
REMARK    7  A    between atoms: C_22  and  C_23
REMARK    8  A    between atoms: N_25  and  C_26
REMARK    9  A    between atoms: O_33  and  C_34
REMARK   10  A    between atoms: C_34  and  C_35
REMARK   11  A    between atoms: C_35  and  N_36
REMARK                            x       y       z     vdW  Elec       q    Type
REMARK                         _______ _______ _______ _____ _____    ______ ____
ROOT
ATOM      1  C   UNL     1       2.987   2.455   3.527  0.00  0.00    +0.166 A 
ATOM      2  C   UNL     1       1.949   2.877   4.344  0.00  0.00    +0.051 A 
ATOM      3  C   UNL     1       2.214   3.321   5.624  0.00  0.00    +0.027 A 
ATOM      4  C   UNL     1       3.520   3.345   6.095  0.00  0.00    +0.036 A 
ATOM      5  C   UNL     1       4.560   2.922   5.279  0.00  0.00    +0.065 A 
ATOM      6  C   UNL     1       4.293   2.472   3.998  0.00  0.00    +0.167 A 
ATOM      7  F   UNL     1       5.304   2.055   3.205  0.00  0.00    -0.202 F 
ENDROOT
BRANCH   4   8
ATOM      8  N   UNL     1       3.788   3.796   7.394  0.00  0.00    -0.285 N 
ATOM      9  C   UNL     1       4.871   3.342   8.055  0.00  0.00    +0.226 C 
ATOM     10  O   UNL     1       5.563   2.475   7.563  0.00  0.00    -0.275 OA
ATOM     11  H   UNL     1       3.195   4.436   7.817  0.00  0.00    +0.155 HD
BRANCH   9  12
ATOM     12  C   UNL     1       5.223   3.910   9.406  0.00  0.00    +0.192 C 
BRANCH  12  13
ATOM     13  C   UNL     1       6.467   3.236   9.925  0.00  0.00    +0.226 C 
ATOM     14  O   UNL     1       7.014   2.379   9.264  0.00  0.00    -0.275 OA
ATOM     15  N   UNL     1       6.971   3.586  11.125  0.00  0.00    -0.285 N 
ATOM     16  H   UNL     1       6.492   4.215  11.688  0.00  0.00    +0.155 HD
BRANCH  15  17
ATOM     17  C   UNL     1       8.186   3.042  11.560  0.00  0.00    +0.034 A 
ATOM     18  C   UNL     1       8.384   2.771  12.907  0.00  0.00    +0.026 A 
ATOM     19  C   UNL     1       9.584   2.235  13.333  0.00  0.00    +0.040 A 
ATOM     20  C   UNL     1      10.588   1.968  12.418  0.00  0.00    +0.124 A 
ATOM     21  C   UNL     1      10.392   2.237  11.074  0.00  0.00    +0.040 A 
ATOM     22  C   UNL     1       9.192   2.768  10.643  0.00  0.00    +0.026 A 
ATOM     23  F   UNL     1      11.761   1.444  12.837  0.00  0.00    -0.205 F 
ENDBRANCH  15  17
ENDBRANCH  12  13
ENDBRANCH   9  12
ENDBRANCH   4   8
BRANCH   1  24
ATOM     24  O   UNL     1       2.725   2.018   2.266  0.00  0.00    -0.433 OA
BRANCH  24  31
ATOM     25  C   UNL     1       1.992   2.259  -0.728  0.00  0.00    +0.050 C 
ATOM     26  C   UNL     1       1.901   0.789  -0.409  0.00  0.00    +0.023 A 
ATOM     27  C   UNL     1       1.561  -0.235  -1.298  0.00  0.00    +0.144 A 
ATOM     28  C   UNL     1       1.595  -1.413  -0.612  0.00  0.00    +0.159 A 
ATOM     29  N   UNL     1       1.943  -1.164   0.672  0.00  0.00    -0.229 N 
ATOM     30  C   UNL     1       2.143   0.197   0.816  0.00  0.00    +0.134 A 
ATOM     31  C   UNL     1       2.522   0.692   2.082  0.00  0.00    +0.248 A 
ATOM     32  N   UNL     1       2.678  -0.153   3.086  0.00  0.00    -0.198 NA
ATOM     33  C   UNL     1       2.486  -1.462   2.933  0.00  0.00    +0.247 A 
ATOM     34  N   UNL     1       2.126  -1.985   1.793  0.00  0.00    -0.155 NA
BRANCH  27  35
ATOM     35  O   UNL     1       1.251  -0.084  -2.615  0.00  0.00    -0.492 OA
BRANCH  35  36
ATOM     36  C   UNL     1       0.932  -1.269  -3.347  0.00  0.00    +0.211 C 
BRANCH  36  37
ATOM     37  C   UNL     1       0.613  -0.902  -4.798  0.00  0.00    -0.037 C 
BRANCH  37  38
ATOM     38  N   UNL     1       1.821  -0.374  -5.446  0.00  0.00    +0.385 N 
ATOM     39  C   UNL     1       1.489   0.087  -6.801  0.00  0.00    -0.050 C 
ATOM     40  C   UNL     1       2.749   0.637  -7.474  0.00  0.00    +0.141 C 
ATOM     41  O   UNL     1       3.753  -0.381  -7.497  0.00  0.00    -0.383 OA
ATOM     42  C   UNL     1       4.095  -0.881  -6.201  0.00  0.00    +0.141 C 
ATOM     43  C   UNL     1       2.837  -1.433  -5.526  0.00  0.00    -0.050 C 
ATOM     44  H   UNL     1       2.182   0.398  -4.906  0.00  0.00    -0.081 HD
ENDBRANCH  37  38
ENDBRANCH  36  37
ENDBRANCH  35  36
ENDBRANCH  27  35
ENDBRANCH  24  31
ENDBRANCH   1  24
TORSDOF 10
