REMARK  Name = CHEMBL461140
REMARK  9 active torsions:
REMARK  status: ('A' for Active; 'I' for Inactive)
REMARK    1  A    between atoms: C_1  and  N_2
REMARK    2  A    between atoms: N_2  and  C_3
REMARK    3  A    between atoms: N_2  and  C_4
REMARK    4  A    between atoms: C_4  and  C_5
REMARK    5  A    between atoms: C_5  and  O_6
REMARK    6  A    between atoms: O_6  and  C_7
REMARK    7  A    between atoms: C_10  and  C_13
REMARK    8  A    between atoms: C_14  and  C_15
REMARK    9  A    between atoms: C_17  and  C_21
REMARK                            x       y       z     vdW  Elec       q    Type
REMARK                         _______ _______ _______ _____ _____    ______ ____
ROOT
ATOM      1  C   UNL     1      10.349   0.095   1.897  0.00  0.00    +0.064 A 
ATOM      2  C   UNL     1      11.042  -0.527   2.935  0.00  0.00    +0.037 A 
ATOM      3  C   UNL     1      12.398  -0.238   3.110  0.00  0.00    +0.002 A 
ATOM      4  C   UNL     1      13.002   0.670   2.227  0.00  0.00    +0.029 A 
ATOM      5  C   UNL     1      12.246   1.242   1.226  0.00  0.00    +0.112 A 
ATOM      6  N   UNL     1      10.969   0.945   1.083  0.00  0.00    -0.256 NA
ENDROOT
BRANCH   3   7
ATOM      7  C   UNL     1      13.175  -0.871   4.195  0.00  0.00    +0.049 A 
ATOM      8  C   UNL     1      14.491  -0.655   4.454  0.00  0.00    +0.043 A 
ATOM      9  C   UNL     1      14.838  -1.450   5.566  0.00  0.00    +0.083 A 
ATOM     10  C   UNL     1      13.683  -2.144   5.959  0.00  0.00    +0.145 A 
ATOM     11  N   UNL     1      12.679  -1.772   5.114  0.00  0.00    -0.339 N 
ATOM     12  H   UNL     1      11.764  -2.093   5.152  0.00  0.00    +0.167 HD
ATOM     13  N   UNL     1      13.750  -2.977   7.008  0.00  0.00    -0.220 NA
ATOM     14  C   UNL     1      14.854  -3.161   7.673  0.00  0.00    +0.201 A 
ATOM     15  N   UNL     1      16.017  -2.533   7.364  0.00  0.00    -0.313 N 
ATOM     16  H   UNL     1      16.813  -2.704   7.891  0.00  0.00    +0.170 HD
ATOM     17  C   UNL     1      16.069  -1.668   6.324  0.00  0.00    +0.261 A 
ATOM     18  O   UNL     1      17.102  -1.094   6.030  0.00  0.00    -0.267 OA
ENDBRANCH   3   7
BRANCH   1  20
ATOM     19  C   UNL     1       8.247   0.396   0.695  0.00  0.00    +0.010 C 
ATOM     20  C   UNL     1       8.919  -0.196   1.696  0.00  0.00    +0.028 C 
BRANCH  19  24
ATOM     21  C   UNL     1       4.127  -0.444   0.116  0.00  0.00    +0.120 A 
ATOM     22  C   UNL     1       4.779   0.443  -0.731  0.00  0.00    +0.046 A 
ATOM     23  C   UNL     1       6.116   0.719  -0.547  0.00  0.00    +0.011 A 
ATOM     24  C   UNL     1       6.817   0.104   0.494  0.00  0.00    -0.025 A 
ATOM     25  C   UNL     1       6.157  -0.788   1.345  0.00  0.00    +0.011 A 
ATOM     26  C   UNL     1       4.819  -1.053   1.156  0.00  0.00    +0.046 A 
BRANCH  21  27
ATOM     27  O   UNL     1       2.809  -0.713  -0.069  0.00  0.00    -0.494 OA
BRANCH  27  28
ATOM     28  C   UNL     1       2.159  -0.053  -1.157  0.00  0.00    +0.210 C 
BRANCH  28  29
ATOM     29  C   UNL     1       0.690  -0.478  -1.207  0.00  0.00    -0.038 C 
BRANCH  29  31
ATOM     30  C   UNL     1      -0.018   1.465   0.010  0.00  0.00    -0.096 C 
ATOM     31  N   UNL     1       0.002  -0.004   0.002  0.00  0.00    +0.378 N 
ATOM     32  C   UNL     1      -1.376  -0.512   0.012  0.00  0.00    -0.096 C 
ATOM     33  H   UNL     1       0.490  -0.338   0.820  0.00  0.00    -0.082 HD
ENDBRANCH  29  31
ENDBRANCH  28  29
ENDBRANCH  27  28
ENDBRANCH  21  27
ENDBRANCH  19  24
ENDBRANCH   1  20
TORSDOF 7
