REMARK  Name = CHEMBL600632
REMARK  10 active torsions:
REMARK  status: ('A' for Active; 'I' for Inactive)
REMARK    1  A    between atoms: C_1  and  N_2
REMARK    2  A    between atoms: C_4  and  C_7
REMARK    3  A    between atoms: C_12  and  O_16
REMARK    4  A    between atoms: O_16  and  C_17
REMARK    5  A    between atoms: C_20  and  N_24
REMARK    6  A    between atoms: C_25  and  C_27
REMARK    7  A    between atoms: C_27  and  C_28
REMARK    8  A    between atoms: C_28  and  C_29
REMARK    9  A    between atoms: C_28  and  N_33
REMARK   10  A    between atoms: N_33  and  C_34
REMARK                            x       y       z     vdW  Elec       q    Type
REMARK                         _______ _______ _______ _____ _____    ______ ____
ROOT
ATOM      1  C   UNL     1       0.063  -6.670  -6.659  0.00  0.00    +0.164 A 
ATOM      2  C   UNL     1      -0.171  -7.976  -6.253  0.00  0.00    +0.051 A 
ATOM      3  C   UNL     1      -0.170  -8.999  -7.180  0.00  0.00    +0.027 A 
ATOM      4  C   UNL     1       0.065  -8.722  -8.521  0.00  0.00    +0.036 A 
ATOM      5  C   UNL     1       0.299  -7.416  -8.929  0.00  0.00    +0.065 A 
ATOM      6  C   UNL     1       0.292  -6.391  -8.001  0.00  0.00    +0.167 A 
ATOM      7  F   UNL     1       0.514  -5.118  -8.397  0.00  0.00    -0.202 F 
ENDROOT
BRANCH   4   8
ATOM      8  N   UNL     1       0.066  -9.760  -9.461  0.00  0.00    -0.285 N 
ATOM      9  C   UNL     1      -0.381  -9.537 -10.712  0.00  0.00    +0.219 C 
ATOM     10  O   UNL     1      -0.869  -8.464 -11.000  0.00  0.00    -0.275 OA
ATOM     11  H   UNL     1       0.389 -10.640  -9.211  0.00  0.00    +0.155 HD
BRANCH   9  12
ATOM     12  C   UNL     1      -0.274 -10.620 -11.755  0.00  0.00    +0.127 C 
BRANCH  12  13
ATOM     13  C   UNL     1      -0.849 -10.111 -13.079  0.00  0.00    +0.184 C 
BRANCH  13  14
ATOM     14  C   UNL     1      -0.629 -11.163 -14.168  0.00  0.00    +0.408 C 
ATOM     15  F   UNL     1      -1.272 -12.352 -13.806  0.00  0.00    -0.169 F 
ATOM     16  F   UNL     1      -1.155 -10.698 -15.378  0.00  0.00    -0.169 F 
ATOM     17  F   UNL     1       0.742 -11.401 -14.316  0.00  0.00    -0.169 F 
ENDBRANCH  13  14
BRANCH  13  18
ATOM     18  N   UNL     1      -2.285  -9.863 -12.924  0.00  0.00    -0.333 N 
ATOM     19  H   UNL     1      -2.788 -10.337 -12.244  0.00  0.00    +0.147 HD
BRANCH  18  20
ATOM     20  C   UNL     1      -2.928  -8.942 -13.755  0.00  0.00    +0.028 A 
ATOM     21  C   UNL     1      -2.208  -8.267 -14.733  0.00  0.00    +0.023 A 
ATOM     22  C   UNL     1      -2.847  -7.358 -15.553  0.00  0.00    +0.002 A 
ATOM     23  C   UNL     1      -4.201  -7.120 -15.402  0.00  0.00    +0.000 A 
ATOM     24  C   UNL     1      -4.920  -7.791 -14.430  0.00  0.00    +0.002 A 
ATOM     25  C   UNL     1      -4.288  -8.705 -13.610  0.00  0.00    +0.023 A 
ENDBRANCH  18  20
ENDBRANCH  13  18
ENDBRANCH  12  13
ENDBRANCH   9  12
ENDBRANCH   4   8
BRANCH   1  26
ATOM     26  O   UNL     1       0.062  -5.663  -5.745  0.00  0.00    -0.452 OA
BRANCH  26  32
ATOM     27  C   UNL     1      -1.188  -2.140  -2.638  0.00  0.00    +0.042 A 
ATOM     28  C   UNL     1      -2.323  -2.292  -3.367  0.00  0.00    +0.046 A 
ATOM     29  C   UNL     1      -2.373  -3.245  -4.402  0.00  0.00    +0.082 A 
ATOM     30  C   UNL     1      -1.188  -3.988  -4.595  0.00  0.00    +0.080 A 
ATOM     31  S   UNL     1      -0.085  -3.339  -3.366  0.00  0.00    -0.081 S 
ATOM     32  C   UNL     1      -1.086  -4.959  -5.574  0.00  0.00    +0.146 A 
ATOM     33  C   UNL     1      -2.200  -5.193  -6.379  0.00  0.00    +0.067 A 
ATOM     34  C   UNL     1      -3.342  -4.443  -6.157  0.00  0.00    +0.115 A 
ATOM     35  N   UNL     1      -3.410  -3.529  -5.222  0.00  0.00    -0.254 NA
BRANCH  27  39
ATOM     36  C   UNL     1       1.018   0.354   1.093  0.00  0.00    +0.150 C 
ATOM     37  N   UNL     1       0.038  -0.117   0.111  0.00  0.00    -0.339 N 
ATOM     38  C   UNL     1       0.236  -1.092  -0.825  0.00  0.00    +0.115 A 
ATOM     39  C   UNL     1      -0.928  -1.207  -1.521  0.00  0.00    +0.095 A 
ATOM     40  N   UNL     1      -1.802  -0.316  -1.007  0.00  0.00    -0.235 NA
ATOM     41  C   UNL     1      -1.229   0.331  -0.032  0.00  0.00    +0.199 A 
ENDBRANCH  27  39
ENDBRANCH  26  32
ENDBRANCH   1  26
TORSDOF 9
