REMARK  Name = CHEMBL497117
REMARK  4 active torsions:
REMARK  status: ('A' for Active; 'I' for Inactive)
REMARK    1  A    between atoms: C_3  and  O_22
REMARK    2  A    between atoms: C_6  and  C_7
REMARK    3  A    between atoms: C_7  and  C_8
REMARK    4  A    between atoms: C_14  and  C_17
REMARK                            x       y       z     vdW  Elec       q    Type
REMARK                         _______ _______ _______ _____ _____    ______ ____
ROOT
ATOM      1  C   UNL     1      -1.739  -1.023  -1.407  0.00  0.00    +0.159 A 
ATOM      2  N   UNL     1      -2.504  -0.239  -2.126  0.00  0.00    -0.132 NA
ATOM      3  N   UNL     1      -2.690  -0.748  -3.294  0.00  0.00    -0.128 NA
ATOM      4  C   UNL     1      -2.043  -1.900  -3.376  0.00  0.00    +0.178 A 
ATOM      5  N   UNL     1      -1.418  -2.092  -2.167  0.00  0.00    -0.196 N 
ATOM      6  N   UNL     1      -0.645  -3.235  -1.953  0.00  0.00    -0.163 NA
ATOM      7  C   UNL     1      -0.506  -4.134  -2.903  0.00  0.00    +0.092 A 
ATOM      8  C   UNL     1      -1.133  -3.963  -4.156  0.00  0.00    +0.034 A 
ATOM      9  C   UNL     1      -1.897  -2.865  -4.391  0.00  0.00    +0.052 A 
ENDROOT
BRANCH   7  10
ATOM     10  C   UNL     1       0.319  -5.340  -2.655  0.00  0.00    +0.009 A 
ATOM     11  C   UNL     1       0.944  -5.535  -1.426  0.00  0.00    +0.017 A 
ATOM     12  C   UNL     1       1.688  -6.648  -1.238  0.00  0.00    +0.046 A 
ATOM     13  S   UNL     1       1.534  -7.477  -2.811  0.00  0.00    -0.104 S 
ATOM     14  C   UNL     1       0.479  -6.290  -3.626  0.00  0.00    +0.055 A 
ENDBRANCH   7  10
BRANCH   1  15
ATOM     15  C   UNL     1      -1.293  -0.774   0.011  0.00  0.00    +0.113 C 
BRANCH  15  21
ATOM     16  C   UNL     1      -0.017   1.378   0.010  0.00  0.00    +0.007 A 
ATOM     17  C   UNL     1       1.169   2.087   0.002  0.00  0.00    +0.045 A 
ATOM     18  C   UNL     1       2.380   1.409  -0.013  0.00  0.00    +0.117 A 
ATOM     19  C   UNL     1       2.396   0.022  -0.021  0.00  0.00    +0.045 A 
ATOM     20  C   UNL     1       1.207  -0.681  -0.013  0.00  0.00    +0.007 A 
ATOM     21  C   UNL     1       0.002  -0.004   0.002  0.00  0.00    -0.040 A 
BRANCH  18  22
ATOM     22  O   UNL     1       3.548   2.104  -0.021  0.00  0.00    -0.507 OA
ATOM     23  H   UNL     1       3.895   2.300   0.860  0.00  0.00    +0.292 HD
ENDBRANCH  18  22
ENDBRANCH  15  21
ENDBRANCH   1  15
TORSDOF 4
