REMARK  Name = CHEMBL502544
REMARK  9 active torsions:
REMARK  status: ('A' for Active; 'I' for Inactive)
REMARK    1  A    between atoms: C_6  and  C_7
REMARK    2  A    between atoms: C_7  and  C_8
REMARK    3  A    between atoms: N_13  and  C_14
REMARK    4  A    between atoms: C_17  and  O_21
REMARK    5  A    between atoms: O_21  and  C_22
REMARK    6  A    between atoms: C_28  and  C_32
REMARK    7  A    between atoms: C_32  and  C_34
REMARK    8  A    between atoms: C_34  and  N_35
REMARK    9  A    between atoms: C_38  and  O_40
REMARK                            x       y       z     vdW  Elec       q    Type
REMARK                         _______ _______ _______ _____ _____    ______ ____
ROOT
ATOM      1  C   UNL     1      -4.882  -2.922  -4.436  0.00  0.00    +0.038 A 
ATOM      2  C   UNL     1      -4.676  -4.192  -4.959  0.00  0.00    +0.027 A 
ATOM      3  C   UNL     1      -5.135  -4.501  -6.225  0.00  0.00    +0.051 A 
ATOM      4  C   UNL     1      -5.802  -3.543  -6.974  0.00  0.00    +0.164 A 
ATOM      5  C   UNL     1      -6.008  -2.272  -6.453  0.00  0.00    +0.167 A 
ATOM      6  C   UNL     1      -5.554  -1.964  -5.184  0.00  0.00    +0.065 A 
ATOM      7  F   UNL     1      -6.657  -1.339  -7.183  0.00  0.00    -0.202 F 
ENDROOT
BRANCH   1  13
ATOM      8  C   UNL     1      -5.430  -0.716  -0.306  0.00  0.00    +0.225 C 
ATOM      9  O   UNL     1      -6.436  -0.187  -0.730  0.00  0.00    -0.275 OA
ATOM     10  N   UNL     1      -4.719  -1.543  -1.099  0.00  0.00    -0.240 N 
ATOM     11  C   UNL     1      -5.126  -1.782  -2.361  0.00  0.00    +0.310 C 
ATOM     12  O   UNL     1      -6.135  -1.252  -2.785  0.00  0.00    -0.252 OA
ATOM     13  N   UNL     1      -4.415  -2.608  -3.153  0.00  0.00    -0.269 N 
ATOM     14  H   UNL     1      -3.915  -1.966  -0.760  0.00  0.00    +0.159 HD
ATOM     15  H   UNL     1      -3.581  -2.987  -2.834  0.00  0.00    +0.156 HD
BRANCH   8  16
ATOM     16  C   UNL     1      -4.975  -0.449   1.105  0.00  0.00    +0.131 C 
BRANCH  16  22
ATOM     17  C   UNL     1      -7.028   0.008   2.462  0.00  0.00    +0.007 A 
ATOM     18  C   UNL     1      -7.910   0.879   3.074  0.00  0.00    +0.038 A 
ATOM     19  C   UNL     1      -7.701   2.245   2.994  0.00  0.00    +0.123 A 
ATOM     20  C   UNL     1      -6.608   2.738   2.302  0.00  0.00    +0.038 A 
ATOM     21  C   UNL     1      -5.727   1.866   1.691  0.00  0.00    +0.007 A 
ATOM     22  C   UNL     1      -5.937   0.502   1.771  0.00  0.00    -0.038 A 
ATOM     23  F   UNL     1      -8.563   3.097   3.591  0.00  0.00    -0.205 F 
ENDBRANCH  16  22
ENDBRANCH   8  16
ENDBRANCH   1  13
BRANCH   4  24
ATOM     24  O   UNL     1      -6.253  -3.849  -8.220  0.00  0.00    -0.452 OA
BRANCH  24  25
ATOM     25  C   UNL     1      -5.447  -3.571  -9.276  0.00  0.00    +0.141 A 
ATOM     26  C   UNL     1      -4.243  -2.898  -9.100  0.00  0.00    +0.067 A 
ATOM     27  C   UNL     1      -3.450  -2.635 -10.202  0.00  0.00    +0.117 A 
ATOM     28  N   UNL     1      -3.807  -3.007 -11.414  0.00  0.00    -0.237 NA
ATOM     29  C   UNL     1      -4.945  -3.652 -11.642  0.00  0.00    +0.142 A 
ATOM     30  C   UNL     1      -5.798  -3.959 -10.572  0.00  0.00    +0.071 A 
ATOM     31  C   UNL     1      -6.949  -4.671 -11.159  0.00  0.00    +0.049 A 
ATOM     32  C   UNL     1      -6.709  -4.744 -12.504  0.00  0.00    +0.096 A 
ATOM     33  N   UNL     1      -5.533  -4.138 -12.790  0.00  0.00    -0.345 N 
ATOM     34  H   UNL     1      -5.152  -4.064 -13.679  0.00  0.00    +0.167 HD
BRANCH  31  35
ATOM     35  C   UNL     1      -8.078  -5.177 -10.467  0.00  0.00    +0.179 C 
ATOM     36  O   UNL     1      -8.164  -5.042  -9.264  0.00  0.00    -0.291 OA
BRANCH  35  37
ATOM     37  C   UNL     1      -9.172  -5.884 -11.226  0.00  0.00    +0.164 C 
BRANCH  37  38
ATOM     38  N   UNL     1     -10.221  -6.310 -10.290  0.00  0.00    -0.293 NA
ATOM     39  C   UNL     1      -9.779  -7.485  -9.494  0.00  0.00    +0.087 C 
ATOM     40  C   UNL     1     -11.089  -8.130  -8.993  0.00  0.00    +0.048 C 
ATOM     41  C   UNL     1     -12.169  -7.676  -9.996  0.00  0.00    +0.130 C 
ATOM     42  C   UNL     1     -11.421  -6.794 -11.019  0.00  0.00    +0.116 C 
BRANCH  41  43
ATOM     43  O   UNL     1     -12.749  -8.808 -10.647  0.00  0.00    -0.390 OA
ATOM     44  H   UNL     1     -13.195  -9.421 -10.046  0.00  0.00    +0.210 HD
ENDBRANCH  41  43
ENDBRANCH  37  38
ENDBRANCH  35  37
ENDBRANCH  31  35
ENDBRANCH  24  25
ENDBRANCH   4  24
TORSDOF 9
