REMARK  Name = CHEMBL566621
REMARK  6 active torsions:
REMARK  status: ('A' for Active; 'I' for Inactive)
REMARK    1  A    between atoms: C_4  and  N_7
REMARK    2  A    between atoms: C_8  and  C_10
REMARK    3  A    between atoms: C_10  and  C_11
REMARK    4  A    between atoms: N_13  and  C_14
REMARK    5  A    between atoms: C_17  and  O_21
REMARK    6  A    between atoms: O_21  and  C_22
REMARK                            x       y       z     vdW  Elec       q    Type
REMARK                         _______ _______ _______ _____ _____    ______ ____
ROOT
ATOM      1  C   UNL     1       5.751  -6.478   0.262  0.00  0.00    +0.036 A 
ATOM      2  C   UNL     1       4.457  -6.955   0.098  0.00  0.00    +0.027 A 
ATOM      3  C   UNL     1       4.218  -8.315   0.077  0.00  0.00    +0.051 A 
ATOM      4  C   UNL     1       5.271  -9.206   0.219  0.00  0.00    +0.164 A 
ATOM      5  C   UNL     1       6.566  -8.732   0.384  0.00  0.00    +0.167 A 
ATOM      6  C   UNL     1       6.806  -7.370   0.399  0.00  0.00    +0.065 A 
ATOM      7  F   UNL     1       7.592  -9.600   0.523  0.00  0.00    -0.202 F 
ENDROOT
BRANCH   1  10
ATOM      8  C   UNL     1       5.074  -4.262   0.805  0.00  0.00    +0.226 C 
ATOM      9  O   UNL     1       4.080  -4.708   1.337  0.00  0.00    -0.275 OA
ATOM     10  N   UNL     1       5.992  -5.099   0.283  0.00  0.00    -0.285 N 
ATOM     11  H   UNL     1       6.820  -4.746  -0.079  0.00  0.00    +0.155 HD
BRANCH   8  12
ATOM     12  C   UNL     1       5.284  -2.771   0.729  0.00  0.00    +0.192 C 
BRANCH  12  14
ATOM     13  N   UNL     1       4.093  -0.721   1.432  0.00  0.00    -0.285 N 
ATOM     14  C   UNL     1       4.122  -2.067   1.382  0.00  0.00    +0.226 C 
ATOM     15  O   UNL     1       3.214  -2.712   1.861  0.00  0.00    -0.275 OA
ATOM     16  H   UNL     1       4.780  -0.203   0.984  0.00  0.00    +0.155 HD
BRANCH  13  20
ATOM     17  C   UNL     1       1.052   1.220   3.517  0.00  0.00    +0.000 A 
ATOM     18  C   UNL     1       1.523  -0.001   3.962  0.00  0.00    +0.002 A 
ATOM     19  C   UNL     1       2.531  -0.647   3.274  0.00  0.00    +0.023 A 
ATOM     20  C   UNL     1       3.071  -0.069   2.132  0.00  0.00    +0.033 A 
ATOM     21  C   UNL     1       2.595   1.157   1.687  0.00  0.00    +0.023 A 
ATOM     22  C   UNL     1       1.587   1.798   2.381  0.00  0.00    +0.002 A 
ENDBRANCH  13  20
ENDBRANCH  12  14
ENDBRANCH   8  12
ENDBRANCH   1  10
BRANCH   4  23
ATOM     23  O   UNL     1       5.035 -10.546   0.199  0.00  0.00    -0.452 OA
BRANCH  23  24
ATOM     24  C   UNL     1       4.918 -11.190   1.388  0.00  0.00    +0.146 A 
ATOM     25  C   UNL     1       4.925 -10.487   2.590  0.00  0.00    +0.067 A 
ATOM     26  C   UNL     1       4.802 -11.199   3.771  0.00  0.00    +0.115 A 
ATOM     27  N   UNL     1       4.681 -12.502   3.793  0.00  0.00    -0.254 NA
ATOM     28  C   UNL     1       4.666 -13.252   2.669  0.00  0.00    +0.082 A 
ATOM     29  C   UNL     1       4.783 -12.567   1.443  0.00  0.00    +0.080 A 
ATOM     30  S   UNL     1       4.715 -13.859   0.230  0.00  0.00    -0.091 S 
ATOM     31  C   UNL     1       4.530 -15.254   1.326  0.00  0.00    +0.048 A 
ATOM     32  C   UNL     1       4.539 -14.695   2.547  0.00  0.00    +0.036 A 
ENDBRANCH  23  24
ENDBRANCH   4  23
TORSDOF 6
