REMARK  Name = CHEMBL1170607
REMARK  4 active torsions:
REMARK  status: ('A' for Active; 'I' for Inactive)
REMARK    1  A    between atoms: C_8  and  C_10
REMARK    2  A    between atoms: C_12  and  C_17
REMARK    3  A    between atoms: C_15  and  N_16
REMARK    4  A    between atoms: N_20  and  C_22
REMARK                            x       y       z     vdW  Elec       q    Type
REMARK                         _______ _______ _______ _____ _____    ______ ____
ROOT
ATOM      1  C   UNL     1       3.615  -3.385  -0.291  0.00  0.00    +0.077 A 
ATOM      2  C   UNL     1       5.007  -3.375  -0.400  0.00  0.00    +0.026 A 
ATOM      3  C   UNL     1       5.697  -4.564  -0.167  0.00  0.00    +0.004 A 
ATOM      4  C   UNL     1       4.981  -5.713   0.165  0.00  0.00    +0.121 A 
ATOM      5  N   UNL     1       3.667  -5.690   0.260  0.00  0.00    -0.239 NA
ATOM      6  C   UNL     1       2.969  -4.584   0.054  0.00  0.00    +0.128 A 
ENDROOT
BRANCH   1  14
ATOM      7  C   UNL     1       0.926   1.919  -0.835  0.00  0.00    +0.002 A 
ATOM      8  C   UNL     1       0.043   1.212  -1.638  0.00  0.00    +0.004 A 
ATOM      9  C   UNL     1       0.223  -0.139  -1.856  0.00  0.00    +0.048 A 
ATOM     10  C   UNL     1       1.292  -0.797  -1.270  0.00  0.00    +0.156 A 
ATOM     11  C   UNL     1       2.189  -0.086  -0.456  0.00  0.00    +0.110 A 
ATOM     12  C   UNL     1       1.994   1.282  -0.244  0.00  0.00    +0.031 A 
ATOM     13  N   UNL     1       3.119  -0.978  -0.027  0.00  0.00    -0.209 NA
ATOM     14  C   UNL     1       2.835  -2.155  -0.527  0.00  0.00    +0.232 A 
ATOM     15  O   UNL     1       1.727  -2.077  -1.289  0.00  0.00    -0.435 OA
ENDBRANCH   1  14
BRANCH   3  16
ATOM     16  C   UNL     1       7.178  -4.607  -0.271  0.00  0.00    +0.021 A 
ATOM     17  C   UNL     1       8.021  -3.525  -0.591  0.00  0.00    +0.143 A 
ATOM     18  N   UNL     1       9.255  -3.955  -0.585  0.00  0.00    -0.179 NA
ATOM     19  N   UNL     1       9.249  -5.318  -0.264  0.00  0.00    -0.268 N 
ATOM     20  C   UNL     1       7.969  -5.699  -0.069  0.00  0.00    +0.117 A 
BRANCH  19  21
ATOM     21  C   UNL     1      10.428  -6.180  -0.152  0.00  0.00    +0.111 C 
ATOM     22  C   UNL     1      10.203  -7.217   0.952  0.00  0.00    +0.055 C 
ATOM     23  C   UNL     1      11.406  -8.161   1.008  0.00  0.00    +0.162 C 
ATOM     24  O   UNL     1      11.584  -8.781  -0.267  0.00  0.00    -0.380 OA
ATOM     25  C   UNL     1      11.845  -7.863  -1.331  0.00  0.00    +0.162 C 
ATOM     26  C   UNL     1      10.659  -6.907  -1.481  0.00  0.00    +0.055 C 
ENDBRANCH  19  21
ENDBRANCH   3  16
BRANCH   6  27
ATOM     27  N   UNL     1       1.589  -4.611   0.173  0.00  0.00    -0.343 N 
ATOM     28  H   UNL     1       1.081  -3.787   0.110  0.00  0.00    +0.144 HD
ATOM     29  H   UNL     1       1.131  -5.454   0.319  0.00  0.00    +0.144 HD
ENDBRANCH   6  27
TORSDOF 4
