REMARK  Name = CHEMBL502283
REMARK  6 active torsions:
REMARK  status: ('A' for Active; 'I' for Inactive)
REMARK    1  A    between atoms: C_6  and  C_7
REMARK    2  A    between atoms: C_7  and  C_8
REMARK    3  A    between atoms: N_13  and  C_14
REMARK    4  A    between atoms: C_17  and  O_21
REMARK    5  A    between atoms: O_21  and  C_22
REMARK    6  A    between atoms: C_28  and  C_32
REMARK                            x       y       z     vdW  Elec       q    Type
REMARK                         _______ _______ _______ _____ _____    ______ ____
ROOT
ATOM      1  C   UNL     1      -2.451  -2.965  -4.485  0.00  0.00    +0.038 A 
ATOM      2  C   UNL     1      -1.876  -2.725  -5.726  0.00  0.00    +0.027 A 
ATOM      3  C   UNL     1      -2.636  -2.836  -6.874  0.00  0.00    +0.051 A 
ATOM      4  C   UNL     1      -3.975  -3.187  -6.788  0.00  0.00    +0.164 A 
ATOM      5  C   UNL     1      -4.552  -3.428  -5.548  0.00  0.00    +0.167 A 
ATOM      6  C   UNL     1      -3.790  -3.322  -4.399  0.00  0.00    +0.065 A 
ATOM      7  F   UNL     1      -5.857  -3.769  -5.465  0.00  0.00    -0.202 F 
ENDROOT
BRANCH   1  13
ATOM      8  C   UNL     1      -1.311  -4.478  -0.169  0.00  0.00    +0.225 C 
ATOM      9  O   UNL     1      -2.233  -5.264  -0.207  0.00  0.00    -0.275 OA
ATOM     10  N   UNL     1      -1.092  -3.645  -1.206  0.00  0.00    -0.240 N 
ATOM     11  C   UNL     1      -1.899  -3.686  -2.285  0.00  0.00    +0.310 C 
ATOM     12  O   UNL     1      -2.824  -4.473  -2.323  0.00  0.00    -0.252 OA
ATOM     13  N   UNL     1      -1.680  -2.853  -3.321  0.00  0.00    -0.269 N 
ATOM     14  H   UNL     1      -0.354  -3.017  -1.175  0.00  0.00    +0.159 HD
ATOM     15  H   UNL     1      -0.988  -2.175  -3.261  0.00  0.00    +0.156 HD
BRANCH   8  16
ATOM     16  C   UNL     1      -0.409  -4.433   1.037  0.00  0.00    +0.131 C 
BRANCH  16  22
ATOM     17  C   UNL     1      -0.359  -6.742   2.001  0.00  0.00    +0.007 A 
ATOM     18  C   UNL     1      -0.777  -7.682   2.925  0.00  0.00    +0.038 A 
ATOM     19  C   UNL     1      -1.703  -7.335   3.893  0.00  0.00    +0.123 A 
ATOM     20  C   UNL     1      -2.210  -6.047   3.936  0.00  0.00    +0.038 A 
ATOM     21  C   UNL     1      -1.791  -5.109   3.011  0.00  0.00    +0.007 A 
ATOM     22  C   UNL     1      -0.865  -5.457   2.045  0.00  0.00    -0.038 A 
ATOM     23  F   UNL     1      -2.113  -8.253   4.796  0.00  0.00    -0.205 F 
ENDBRANCH  16  22
ENDBRANCH   8  16
ENDBRANCH   1  13
BRANCH   4  24
ATOM     24  O   UNL     1      -4.723  -3.295  -7.919  0.00  0.00    -0.452 OA
BRANCH  24  25
ATOM     25  C   UNL     1      -4.086  -3.210  -9.114  0.00  0.00    +0.141 A 
ATOM     26  C   UNL     1      -3.994  -2.000  -9.793  0.00  0.00    +0.067 A 
ATOM     27  C   UNL     1      -3.337  -1.954 -11.009  0.00  0.00    +0.117 A 
ATOM     28  N   UNL     1      -2.795  -3.030 -11.542  0.00  0.00    -0.237 NA
ATOM     29  C   UNL     1      -2.851  -4.213 -10.941  0.00  0.00    +0.142 A 
ATOM     30  C   UNL     1      -3.497  -4.337  -9.700  0.00  0.00    +0.070 A 
ATOM     31  C   UNL     1      -3.376  -5.749  -9.310  0.00  0.00    +0.031 A 
ATOM     32  C   UNL     1      -2.685  -6.365 -10.299  0.00  0.00    +0.095 A 
ATOM     33  N   UNL     1      -2.376  -5.458 -11.279  0.00  0.00    -0.345 N 
ATOM     34  H   UNL     1      -1.884  -5.663 -12.089  0.00  0.00    +0.167 HD
BRANCH  31  35
ATOM     35  C   UNL     1      -3.905  -6.377  -8.075  0.00  0.00    +0.082 A 
ATOM     36  C   UNL     1      -3.170  -7.316  -7.409  0.00  0.00    +0.077 A 
ATOM     37  S   UNL     1      -4.269  -7.700  -6.053  0.00  0.00    -0.060 S 
ATOM     38  C   UNL     1      -5.587  -6.580  -6.506  0.00  0.00    +0.156 A 
ATOM     39  N   UNL     1      -5.098  -6.027  -7.601  0.00  0.00    -0.225 NA
ATOM     40  N   UNL     1      -6.797  -6.349  -5.872  0.00  0.00    -0.338 N 
ATOM     41  H   UNL     1      -7.064  -6.901  -5.121  0.00  0.00    +0.144 HD
ATOM     42  H   UNL     1      -7.377  -5.636  -6.181  0.00  0.00    +0.144 HD
ENDBRANCH  31  35
ENDBRANCH  24  25
ENDBRANCH   4  24
TORSDOF 6
