REMARK  Name = CHEMBL454101
REMARK  4 active torsions:
REMARK  status: ('A' for Active; 'I' for Inactive)
REMARK    1  A    between atoms: C_11  and  C_14
REMARK    2  A    between atoms: N_16  and  C_17
REMARK    3  A    between atoms: C_20  and  O_24
REMARK    4  A    between atoms: O_24  and  C_25
REMARK                            x       y       z     vdW  Elec       q    Type
REMARK                         _______ _______ _______ _____ _____    ______ ____
ROOT
ATOM      1  C   UNL     1      -3.574  -4.911  -0.016  0.00  0.00    +0.037 A 
ATOM      2  C   UNL     1      -3.519  -6.199   0.501  0.00  0.00    +0.027 A 
ATOM      3  C   UNL     1      -4.673  -6.951   0.606  0.00  0.00    +0.051 A 
ATOM      4  C   UNL     1      -5.887  -6.420   0.197  0.00  0.00    +0.164 A 
ATOM      5  C   UNL     1      -5.944  -5.132  -0.321  0.00  0.00    +0.167 A 
ATOM      6  C   UNL     1      -4.790  -4.377  -0.421  0.00  0.00    +0.065 A 
ATOM      7  F   UNL     1      -7.127  -4.616  -0.721  0.00  0.00    -0.202 F 
ENDROOT
BRANCH   1  10
ATOM      8  C   UNL     1      -1.412  -4.308   0.775  0.00  0.00    +0.254 C 
ATOM      9  O   UNL     1      -1.490  -5.180   1.619  0.00  0.00    -0.270 OA
ATOM     10  N   UNL     1      -2.404  -4.149  -0.124  0.00  0.00    -0.281 N 
ATOM     11  H   UNL     1      -2.308  -3.508  -0.845  0.00  0.00    +0.155 HD
BRANCH   8  22
ATOM     12  C   UNL     1       1.386   0.727  -3.000  0.00  0.00    +0.005 A 
ATOM     13  C   UNL     1       0.843   1.895  -2.483  0.00  0.00    +0.020 A 
ATOM     14  C   UNL     1       0.328   1.892  -1.201  0.00  0.00    +0.113 A 
ATOM     15  N   UNL     1       0.347   0.796  -0.467  0.00  0.00    -0.237 NA
ATOM     16  C   UNL     1       0.856  -0.337  -0.924  0.00  0.00    +0.140 A 
ATOM     17  C   UNL     1       1.391  -0.406  -2.205  0.00  0.00    +0.047 A 
ATOM     18  N   UNL     1       0.856  -1.473  -0.112  0.00  0.00    -0.268 N 
ATOM     19  C   UNL     1       1.950  -1.756   0.640  0.00  0.00    +0.096 A 
ATOM     20  C   UNL     1       1.987  -2.851   1.442  0.00  0.00    +0.019 A 
ATOM     21  C   UNL     1       0.890  -3.710   1.505  0.00  0.00    +0.020 A 
ATOM     22  C   UNL     1      -0.237  -3.425   0.736  0.00  0.00    +0.102 A 
ATOM     23  C   UNL     1      -0.231  -2.267  -0.083  0.00  0.00    +0.269 A 
ATOM     24  O   UNL     1      -1.206  -1.993  -0.762  0.00  0.00    -0.266 OA
ENDBRANCH   8  22
ENDBRANCH   1  10
BRANCH   4  25
ATOM     25  O   UNL     1      -7.023  -7.161   0.301  0.00  0.00    -0.452 OA
BRANCH  25  26
ATOM     26  C   UNL     1      -7.618  -7.580  -0.844  0.00  0.00    +0.141 A 
ATOM     27  C   UNL     1      -7.010  -7.388  -2.079  0.00  0.00    +0.066 A 
ATOM     28  C   UNL     1      -7.648  -7.829  -3.224  0.00  0.00    +0.117 A 
ATOM     29  N   UNL     1      -8.821  -8.427  -3.176  0.00  0.00    -0.237 NA
ATOM     30  C   UNL     1      -9.451  -8.638  -2.026  0.00  0.00    +0.142 A 
ATOM     31  C   UNL     1      -8.863  -8.223  -0.819  0.00  0.00    +0.061 A 
ATOM     32  C   UNL     1      -9.795  -8.605   0.244  0.00  0.00    +0.032 A 
ATOM     33  C   UNL     1     -10.839  -9.204  -0.350  0.00  0.00    +0.085 A 
ATOM     34  N   UNL     1     -10.653  -9.224  -1.708  0.00  0.00    -0.346 N 
ATOM     35  H   UNL     1     -11.273  -9.606  -2.349  0.00  0.00    +0.167 HD
ENDBRANCH  25  26
ENDBRANCH   4  25
TORSDOF 4
