REMARK  Name = CHEMBL600603
REMARK  12 active torsions:
REMARK  status: ('A' for Active; 'I' for Inactive)
REMARK    1  A    between atoms: C_1  and  O_2
REMARK    2  A    between atoms: O_2  and  C_3
REMARK    3  A    between atoms: C_6  and  O_15
REMARK    4  A    between atoms: C_12  and  O_13
REMARK    5  A    between atoms: O_13  and  C_14
REMARK    6  A    between atoms: O_15  and  C_16
REMARK    7  A    between atoms: C_19  and  N_23
REMARK    8  A    between atoms: C_24  and  C_26
REMARK    9  A    between atoms: C_26  and  C_27
REMARK   10  A    between atoms: C_27  and  C_28
REMARK   11  A    between atoms: C_27  and  N_32
REMARK   12  A    between atoms: N_32  and  C_33
REMARK                            x       y       z     vdW  Elec       q    Type
REMARK                         _______ _______ _______ _____ _____    ______ ____
ROOT
ATOM      1  C   UNL     1       2.951   2.220  -5.224  0.00  0.00    +0.164 A 
ATOM      2  C   UNL     1       3.294   1.445  -6.321  0.00  0.00    +0.051 A 
ATOM      3  C   UNL     1       3.903   2.027  -7.416  0.00  0.00    +0.027 A 
ATOM      4  C   UNL     1       4.172   3.389  -7.418  0.00  0.00    +0.036 A 
ATOM      5  C   UNL     1       3.829   4.167  -6.320  0.00  0.00    +0.065 A 
ATOM      6  C   UNL     1       3.215   3.584  -5.227  0.00  0.00    +0.167 A 
ATOM      7  F   UNL     1       2.876   4.341  -4.160  0.00  0.00    -0.202 F 
ENDROOT
BRANCH   4   8
ATOM      8  N   UNL     1       4.791   3.979  -8.528  0.00  0.00    -0.285 N 
ATOM      9  C   UNL     1       4.476   5.240  -8.884  0.00  0.00    +0.219 C 
ATOM     10  O   UNL     1       3.593   5.832  -8.300  0.00  0.00    -0.275 OA
ATOM     11  H   UNL     1       5.445   3.479  -9.041  0.00  0.00    +0.155 HD
BRANCH   9  12
ATOM     12  C   UNL     1       5.222   5.915 -10.007  0.00  0.00    +0.127 C 
BRANCH  12  13
ATOM     13  C   UNL     1       4.673   7.329 -10.206  0.00  0.00    +0.184 C 
BRANCH  13  14
ATOM     14  C   UNL     1       5.510   8.057 -11.259  0.00  0.00    +0.408 C 
ATOM     15  F   UNL     1       5.448   7.358 -12.469  0.00  0.00    -0.169 F 
ATOM     16  F   UNL     1       5.009   9.350 -11.441  0.00  0.00    -0.169 F 
ATOM     17  F   UNL     1       6.840   8.129 -10.830  0.00  0.00    -0.169 F 
ENDBRANCH  13  14
BRANCH  13  18
ATOM     18  N   UNL     1       3.281   7.254 -10.655  0.00  0.00    -0.333 N 
ATOM     19  H   UNL     1       2.963   6.464 -11.119  0.00  0.00    +0.147 HD
BRANCH  18  20
ATOM     20  C   UNL     1       2.411   8.320 -10.415  0.00  0.00    +0.028 A 
ATOM     21  C   UNL     1       2.866   9.455  -9.756  0.00  0.00    +0.023 A 
ATOM     22  C   UNL     1       2.004  10.508  -9.521  0.00  0.00    +0.002 A 
ATOM     23  C   UNL     1       0.689  10.433  -9.941  0.00  0.00    +0.000 A 
ATOM     24  C   UNL     1       0.232   9.305 -10.597  0.00  0.00    +0.002 A 
ATOM     25  C   UNL     1       1.091   8.251 -10.841  0.00  0.00    +0.023 A 
ENDBRANCH  18  20
ENDBRANCH  13  18
ENDBRANCH  12  13
ENDBRANCH   9  12
ENDBRANCH   4   8
BRANCH   1  26
ATOM     26  O   UNL     1       2.351   1.647  -4.147  0.00  0.00    -0.452 OA
BRANCH  26  30
ATOM     27  C   UNL     1       0.284  -0.320  -1.059  0.00  0.00    +0.162 A 
ATOM     28  C   UNL     1       0.988   0.306  -2.047  0.00  0.00    +0.063 A 
ATOM     29  C   UNL     1       0.303   1.030  -3.035  0.00  0.00    +0.046 A 
ATOM     30  C   UNL     1       0.998   1.691  -4.073  0.00  0.00    +0.139 A 
ATOM     31  C   UNL     1       0.255   2.384  -5.012  0.00  0.00    +0.066 A 
ATOM     32  C   UNL     1      -1.130   2.412  -4.910  0.00  0.00    +0.115 A 
ATOM     33  N   UNL     1      -1.765   1.795  -3.942  0.00  0.00    -0.255 NA
ATOM     34  C   UNL     1      -1.110   1.105  -3.000  0.00  0.00    +0.078 A 
ATOM     35  C   UNL     1      -1.806   0.450  -1.971  0.00  0.00    +0.077 A 
ATOM     36  C   UNL     1      -1.116  -0.252  -1.025  0.00  0.00    +0.164 A 
BRANCH  27  38
ATOM     37  C   UNL     1       2.373  -1.054  -0.191  0.00  0.00    +0.277 C 
ATOM     38  O   UNL     1       0.947  -1.022  -0.102  0.00  0.00    -0.491 OA
ENDBRANCH  27  38
BRANCH  36  39
ATOM     39  O   UNL     1      -1.795  -0.888  -0.035  0.00  0.00    -0.491 OA
ATOM     40  C   UNL     1      -3.220  -0.783  -0.053  0.00  0.00    +0.277 C 
ENDBRANCH  36  39
ENDBRANCH  26  30
ENDBRANCH   1  26
TORSDOF 10
