REMARK  Name = CHEMBL499618
REMARK  7 active torsions:
REMARK  status: ('A' for Active; 'I' for Inactive)
REMARK    1  A    between atoms: C_6  and  N_7
REMARK    2  A    between atoms: C_8  and  C_10
REMARK    3  A    between atoms: C_10  and  C_11
REMARK    4  A    between atoms: N_13  and  C_14
REMARK    5  A    between atoms: C_17  and  O_21
REMARK    6  A    between atoms: O_21  and  C_22
REMARK    7  A    between atoms: C_26  and  N_28
REMARK                            x       y       z     vdW  Elec       q    Type
REMARK                         _______ _______ _______ _____ _____    ______ ____
ROOT
ATOM      1  C   UNL     1      -3.134  -6.600  -0.364  0.00  0.00    +0.036 A 
ATOM      2  C   UNL     1      -1.819  -7.047  -0.353  0.00  0.00    +0.027 A 
ATOM      3  C   UNL     1      -1.550  -8.401  -0.344  0.00  0.00    +0.051 A 
ATOM      4  C   UNL     1      -2.591  -9.317  -0.347  0.00  0.00    +0.164 A 
ATOM      5  C   UNL     1      -3.907  -8.871  -0.357  0.00  0.00    +0.167 A 
ATOM      6  C   UNL     1      -4.178  -7.516  -0.360  0.00  0.00    +0.065 A 
ATOM      7  F   UNL     1      -4.922  -9.763  -0.361  0.00  0.00    -0.202 F 
ENDROOT
BRANCH   1  10
ATOM      8  C   UNL     1      -2.508  -4.364  -0.888  0.00  0.00    +0.226 C 
ATOM      9  O   UNL     1      -1.512  -4.783  -1.438  0.00  0.00    -0.275 OA
ATOM     10  N   UNL     1      -3.407  -5.226  -0.373  0.00  0.00    -0.285 N 
ATOM     11  H   UNL     1      -4.243  -4.895  -0.009  0.00  0.00    +0.155 HD
BRANCH   8  12
ATOM     12  C   UNL     1      -2.741  -2.879  -0.781  0.00  0.00    +0.192 C 
BRANCH  12  14
ATOM     13  N   UNL     1      -1.591  -0.795  -1.455  0.00  0.00    -0.285 N 
ATOM     14  C   UNL     1      -1.598  -2.143  -1.430  0.00  0.00    +0.226 C 
ATOM     15  O   UNL     1      -0.684  -2.763  -1.931  0.00  0.00    -0.275 OA
ATOM     16  H   UNL     1      -2.277  -0.298  -0.982  0.00  0.00    +0.155 HD
BRANCH  13  22
ATOM     17  C   UNL     1       0.037  -0.724  -3.237  0.00  0.00    +0.026 A 
ATOM     18  C   UNL     1       1.020  -0.049  -3.934  0.00  0.00    +0.040 A 
ATOM     19  C   UNL     1       1.377   1.236  -3.561  0.00  0.00    +0.124 A 
ATOM     20  C   UNL     1       0.748   1.847  -2.489  0.00  0.00    +0.040 A 
ATOM     21  C   UNL     1      -0.235   1.175  -1.789  0.00  0.00    +0.026 A 
ATOM     22  C   UNL     1      -0.594  -0.113  -2.162  0.00  0.00    +0.034 A 
ATOM     23  F   UNL     1       2.338   1.895  -4.244  0.00  0.00    -0.205 F 
ENDBRANCH  13  22
ENDBRANCH  12  14
ENDBRANCH   8  12
ENDBRANCH   1  10
BRANCH   4  24
ATOM     24  O   UNL     1      -2.325 -10.650  -0.339  0.00  0.00    -0.453 OA
BRANCH  24  25
ATOM     25  C   UNL     1      -1.030 -11.041  -0.221  0.00  0.00    +0.133 A 
ATOM     26  C   UNL     1      -0.370 -10.967   1.005  0.00  0.00    +0.064 A 
ATOM     27  C   UNL     1       0.944 -11.372   1.088  0.00  0.00    +0.088 A 
ATOM     28  N   UNL     1       1.583 -11.827   0.025  0.00  0.00    -0.350 N 
ATOM     29  C   UNL     1       0.993 -11.913  -1.158  0.00  0.00    +0.097 A 
ATOM     30  C   UNL     1      -0.332 -11.529  -1.319  0.00  0.00    +0.087 A 
ATOM     31  H   UNL     1       2.508 -12.105   0.113  0.00  0.00    +0.166 HD
BRANCH  29  32
ATOM     32  N   UNL     1       1.706 -12.397  -2.249  0.00  0.00    -0.345 N 
ATOM     33  H   UNL     1       2.631 -12.670  -2.141  0.00  0.00    +0.144 HD
ATOM     34  H   UNL     1       1.280 -12.462  -3.118  0.00  0.00    +0.144 HD
ENDBRANCH  29  32
ENDBRANCH  24  25
ENDBRANCH   4  24
TORSDOF 7
