REMARK  Name = CHEMBL462023
REMARK  9 active torsions:
REMARK  status: ('A' for Active; 'I' for Inactive)
REMARK    1  A    between atoms: C_1  and  C_2
REMARK    2  A    between atoms: C_2  and  C_3
REMARK    3  A    between atoms: C_2  and  N_4
REMARK    4  A    between atoms: C_6  and  C_9
REMARK    5  A    between atoms: C_14  and  O_18
REMARK    6  A    between atoms: O_18  and  C_19
REMARK    7  A    between atoms: C_22  and  N_26
REMARK    8  A    between atoms: C_27  and  C_29
REMARK    9  A    between atoms: N_33  and  C_35
REMARK                            x       y       z     vdW  Elec       q    Type
REMARK                         _______ _______ _______ _____ _____    ______ ____
ROOT
ATOM      1  C   UNL     1      -6.565  -6.060  -5.560  0.00  0.00    +0.164 A 
ATOM      2  C   UNL     1      -7.896  -6.266  -5.228  0.00  0.00    +0.051 A 
ATOM      3  C   UNL     1      -8.707  -7.016  -6.057  0.00  0.00    +0.027 A 
ATOM      4  C   UNL     1      -8.190  -7.565  -7.224  0.00  0.00    +0.036 A 
ATOM      5  C   UNL     1      -6.858  -7.360  -7.557  0.00  0.00    +0.065 A 
ATOM      6  C   UNL     1      -6.048  -6.604  -6.729  0.00  0.00    +0.167 A 
ATOM      7  F   UNL     1      -4.753  -6.398  -7.055  0.00  0.00    -0.202 F 
ENDROOT
BRANCH   4   8
ATOM      8  N   UNL     1      -9.012  -8.327  -8.064  0.00  0.00    -0.285 N 
ATOM      9  C   UNL     1     -10.312  -8.000  -8.211  0.00  0.00    +0.222 C 
ATOM     10  O   UNL     1     -10.786  -7.092  -7.562  0.00  0.00    -0.275 OA
ATOM     11  H   UNL     1      -8.647  -9.089  -8.539  0.00  0.00    +0.155 HD
BRANCH   9  12
ATOM     12  C   UNL     1     -11.175  -8.763  -9.183  0.00  0.00    +0.102 C 
ATOM     13  C   UNL     1     -11.388 -10.219  -8.709  0.00  0.00    +0.110 C 
ATOM     14  C   UNL     1     -12.682 -10.169  -7.927  0.00  0.00    +0.221 C 
ATOM     15  O   UNL     1     -13.063 -11.026  -7.158  0.00  0.00    -0.275 OA
ATOM     16  N   UNL     1     -13.349  -9.036  -8.209  0.00  0.00    -0.271 N 
ATOM     17  C   UNL     1     -12.620  -8.217  -9.185  0.00  0.00    +0.127 C 
BRANCH  16  18
ATOM     18  C   UNL     1     -14.579  -8.682  -7.644  0.00  0.00    +0.036 A 
ATOM     19  C   UNL     1     -15.129  -9.458  -6.632  0.00  0.00    +0.023 A 
ATOM     20  C   UNL     1     -16.344  -9.107  -6.077  0.00  0.00    +0.002 A 
ATOM     21  C   UNL     1     -17.012  -7.983  -6.527  0.00  0.00    +0.000 A 
ATOM     22  C   UNL     1     -16.468  -7.209  -7.535  0.00  0.00    +0.002 A 
ATOM     23  C   UNL     1     -15.251  -7.552  -8.090  0.00  0.00    +0.023 A 
ENDBRANCH  16  18
ENDBRANCH   9  12
ENDBRANCH   4   8
BRANCH   1  24
ATOM     24  O   UNL     1      -5.767  -5.322  -4.743  0.00  0.00    -0.452 OA
BRANCH  24  30
ATOM     25  C   UNL     1      -3.518  -1.719  -2.379  0.00  0.00    +0.042 A 
ATOM     26  C   UNL     1      -4.055  -1.069  -3.443  0.00  0.00    +0.046 A 
ATOM     27  C   UNL     1      -4.807  -1.781  -4.396  0.00  0.00    +0.082 A 
ATOM     28  C   UNL     1      -4.941  -3.165  -4.148  0.00  0.00    +0.080 A 
ATOM     29  S   UNL     1      -4.032  -3.407  -2.644  0.00  0.00    -0.081 S 
ATOM     30  C   UNL     1      -5.650  -3.993  -4.997  0.00  0.00    +0.146 A 
ATOM     31  C   UNL     1      -6.242  -3.422  -6.123  0.00  0.00    +0.067 A 
ATOM     32  C   UNL     1      -6.088  -2.062  -6.330  0.00  0.00    +0.115 A 
ATOM     33  N   UNL     1      -5.410  -1.300  -5.508  0.00  0.00    -0.254 NA
BRANCH  25  36
ATOM     34  N   UNL     1      -1.506  -0.968   0.544  0.00  0.00    -0.334 N 
ATOM     35  C   UNL     1      -2.183  -1.866  -0.231  0.00  0.00    +0.116 A 
ATOM     36  C   UNL     1      -2.704  -1.165  -1.276  0.00  0.00    +0.095 A 
ATOM     37  N   UNL     1      -2.342   0.126  -1.123  0.00  0.00    -0.235 NA
ATOM     38  C   UNL     1      -1.633   0.246  -0.036  0.00  0.00    +0.200 A 
BRANCH  34  40
ATOM     39  C   UNL     1       0.691  -0.881   1.616  0.00  0.00    +0.030 C 
ATOM     40  C   UNL     1      -0.781  -1.266   1.782  0.00  0.00    +0.082 C 
ATOM     41  C   UNL     1      -1.390  -0.466   2.935  0.00  0.00    +0.030 C 
ENDBRANCH  34  40
ENDBRANCH  25  36
ENDBRANCH  24  30
ENDBRANCH   1  24
TORSDOF 7
