REMARK  Name = CHEMBL502544
REMARK  9 active torsions:
REMARK  status: ('A' for Active; 'I' for Inactive)
REMARK    1  A    between atoms: C_6  and  C_7
REMARK    2  A    between atoms: C_7  and  C_8
REMARK    3  A    between atoms: N_13  and  C_14
REMARK    4  A    between atoms: C_17  and  O_21
REMARK    5  A    between atoms: O_21  and  C_22
REMARK    6  A    between atoms: C_28  and  C_32
REMARK    7  A    between atoms: C_32  and  C_34
REMARK    8  A    between atoms: C_34  and  N_35
REMARK    9  A    between atoms: C_38  and  O_40
REMARK                            x       y       z     vdW  Elec       q    Type
REMARK                         _______ _______ _______ _____ _____    ______ ____
ROOT
ATOM      1  C   UNL     1      -4.873  -2.937  -4.437  0.00  0.00    +0.038 A 
ATOM      2  C   UNL     1      -4.673  -4.206  -4.963  0.00  0.00    +0.027 A 
ATOM      3  C   UNL     1      -5.135  -4.510  -6.229  0.00  0.00    +0.051 A 
ATOM      4  C   UNL     1      -5.800  -3.548  -6.975  0.00  0.00    +0.164 A 
ATOM      5  C   UNL     1      -6.000  -2.278  -6.449  0.00  0.00    +0.167 A 
ATOM      6  C   UNL     1      -5.543  -1.975  -5.180  0.00  0.00    +0.065 A 
ATOM      7  F   UNL     1      -6.647  -1.341  -7.176  0.00  0.00    -0.202 F 
ENDROOT
BRANCH   1  13
ATOM      8  C   UNL     1      -5.407  -0.741  -0.300  0.00  0.00    +0.225 C 
ATOM      9  O   UNL     1      -6.411  -0.207  -0.720  0.00  0.00    -0.275 OA
ATOM     10  N   UNL     1      -4.700  -1.568  -1.095  0.00  0.00    -0.240 N 
ATOM     11  C   UNL     1      -5.110  -1.802  -2.358  0.00  0.00    +0.310 C 
ATOM     12  O   UNL     1      -6.117  -1.267  -2.779  0.00  0.00    -0.252 OA
ATOM     13  N   UNL     1      -4.403  -2.629  -3.153  0.00  0.00    -0.269 N 
ATOM     14  H   UNL     1      -3.896  -1.995  -0.759  0.00  0.00    +0.159 HD
ATOM     15  H   UNL     1      -3.570  -3.011  -2.837  0.00  0.00    +0.156 HD
BRANCH   8  16
ATOM     16  C   UNL     1      -4.948  -0.479   1.112  0.00  0.00    +0.131 C 
BRANCH  16  22
ATOM     17  C   UNL     1      -6.997  -0.019   2.474  0.00  0.00    +0.007 A 
ATOM     18  C   UNL     1      -7.875   0.853   3.089  0.00  0.00    +0.038 A 
ATOM     19  C   UNL     1      -7.661   2.219   3.013  0.00  0.00    +0.123 A 
ATOM     20  C   UNL     1      -6.567   2.709   2.321  0.00  0.00    +0.038 A 
ATOM     21  C   UNL     1      -5.690   1.836   1.706  0.00  0.00    +0.007 A 
ATOM     22  C   UNL     1      -5.905   0.472   1.782  0.00  0.00    -0.038 A 
ATOM     23  F   UNL     1      -8.519   3.072   3.614  0.00  0.00    -0.205 F 
ENDBRANCH  16  22
ENDBRANCH   8  16
ENDBRANCH   1  13
BRANCH   4  24
ATOM     24  O   UNL     1      -6.254  -3.848  -8.221  0.00  0.00    -0.452 OA
BRANCH  24  25
ATOM     25  C   UNL     1      -5.449  -3.571  -9.277  0.00  0.00    +0.141 A 
ATOM     26  C   UNL     1      -4.242  -2.903  -9.102  0.00  0.00    +0.067 A 
ATOM     27  C   UNL     1      -3.449  -2.639 -10.204  0.00  0.00    +0.117 A 
ATOM     28  N   UNL     1      -3.810  -3.006 -11.417  0.00  0.00    -0.237 NA
ATOM     29  C   UNL     1      -4.951  -3.647 -11.645  0.00  0.00    +0.142 A 
ATOM     30  C   UNL     1      -5.804  -3.953 -10.574  0.00  0.00    +0.071 A 
ATOM     31  C   UNL     1      -6.958  -4.659 -11.160  0.00  0.00    +0.046 A 
ATOM     32  C   UNL     1      -6.720  -4.730 -12.506  0.00  0.00    +0.096 A 
ATOM     33  N   UNL     1      -5.543  -4.127 -12.792  0.00  0.00    -0.345 N 
ATOM     34  H   UNL     1      -5.163  -4.052 -13.682  0.00  0.00    +0.167 HD
BRANCH  31  35
ATOM     35  C   UNL     1      -8.088  -5.164 -10.468  0.00  0.00    +0.149 C 
ATOM     36  O   UNL     1      -8.171  -5.031  -9.264  0.00  0.00    -0.294 OA
BRANCH  35  37
ATOM     37  C   UNL     1      -9.185  -5.865 -11.227  0.00  0.00    +0.002 C 
BRANCH  37  38
ATOM     38  N   UNL     1     -10.234  -6.290 -10.291  0.00  0.00    +0.386 N 
ATOM     39  C   UNL     1      -9.746  -7.400  -9.433  0.00  0.00    -0.076 C 
ATOM     40  C   UNL     1     -11.029  -8.101  -8.937  0.00  0.00    +0.011 C 
ATOM     41  C   UNL     1     -12.105  -7.756  -9.986  0.00  0.00    +0.096 C 
ATOM     42  C   UNL     1     -11.383  -6.876 -11.028  0.00  0.00    -0.047 C 
ATOM     43  H   UNL     1     -10.538  -5.512  -9.725  0.00  0.00    -0.081 HD
BRANCH  41  44
ATOM     44  O   UNL     1     -12.600  -8.948 -10.600  0.00  0.00    -0.394 OA
ATOM     45  H   UNL     1     -13.024  -9.561  -9.984  0.00  0.00    +0.210 HD
ENDBRANCH  41  44
ENDBRANCH  37  38
ENDBRANCH  35  37
ENDBRANCH  31  35
ENDBRANCH  24  25
ENDBRANCH   4  24
TORSDOF 9
