REMARK  Name = CHEMBL461140
REMARK  9 active torsions:
REMARK  status: ('A' for Active; 'I' for Inactive)
REMARK    1  A    between atoms: C_1  and  N_2
REMARK    2  A    between atoms: N_2  and  C_3
REMARK    3  A    between atoms: N_2  and  C_4
REMARK    4  A    between atoms: C_4  and  C_5
REMARK    5  A    between atoms: C_5  and  O_6
REMARK    6  A    between atoms: O_6  and  C_7
REMARK    7  A    between atoms: C_10  and  C_13
REMARK    8  A    between atoms: C_14  and  C_15
REMARK    9  A    between atoms: C_17  and  C_21
REMARK                            x       y       z     vdW  Elec       q    Type
REMARK                         _______ _______ _______ _____ _____    ______ ____
ROOT
ATOM      1  C   UNL     1      -0.452  -9.804   3.210  0.00  0.00    +0.028 C 
ATOM      2  C   UNL     1      -0.137 -10.346   4.460  0.00  0.00    +0.015 C 
ATOM      3  C   UNL     1      -0.091 -11.742   4.602  0.00  0.00    +0.070 C 
ATOM      4  C   UNL     1      -0.364 -12.552   3.480  0.00  0.00    +0.007 C 
ATOM      5  C   UNL     1      -0.663 -11.980   2.291  0.00  0.00    +0.069 C 
ATOM      6  N   UNL     1      -0.714 -10.632   2.154  0.00  0.00    -0.321 N 
ATOM      7  H   UNL     1      -0.935 -10.249   1.291  0.00  0.00    +0.152 HD
ENDROOT
BRANCH   3   8
ATOM      8  C   UNL     1       0.236 -12.351   5.901  0.00  0.00    +0.060 C 
ATOM      9  C   UNL     1       0.320 -13.797   6.171  0.00  0.00    +0.041 C 
ATOM     10  C   UNL     1       0.650 -13.913   7.500  0.00  0.00    +0.083 C 
ATOM     11  C   UNL     1       0.763 -12.535   8.023  0.00  0.00    +0.166 C 
ATOM     12  N   UNL     1       0.508 -11.688   7.013  0.00  0.00    -0.231 NA
ATOM     13  N   UNL     1       1.078 -12.389   9.303  0.00  0.00    -0.220 NA
ATOM     14  C   UNL     1       1.285 -13.434  10.091  0.00  0.00    +0.190 C 
ATOM     15  N   UNL     1       1.206 -14.684   9.711  0.00  0.00    -0.272 N 
ATOM     16  H   UNL     1       1.374 -15.387  10.358  0.00  0.00    +0.156 HD
ATOM     17  C   UNL     1       0.896 -15.017   8.439  0.00  0.00    +0.253 C 
ATOM     18  O   UNL     1       0.823 -16.181   8.085  0.00  0.00    -0.270 OA
ENDBRANCH   3   8
BRANCH   1  20
ATOM     19  C   UNL     1      -0.820  -7.871   1.808  0.00  0.00    +0.010 C 
ATOM     20  C   UNL     1      -0.504  -8.405   3.040  0.00  0.00    +0.023 C 
BRANCH  19  24
ATOM     21  C   UNL     1      -0.976  -3.724   1.305  0.00  0.00    +0.120 A 
ATOM     22  C   UNL     1      -1.248  -4.581   0.212  0.00  0.00    +0.046 A 
ATOM     23  C   UNL     1      -1.196  -5.926   0.376  0.00  0.00    +0.011 A 
ATOM     24  C   UNL     1      -0.873  -6.472   1.639  0.00  0.00    -0.025 A 
ATOM     25  C   UNL     1      -0.602  -5.618   2.731  0.00  0.00    +0.011 A 
ATOM     26  C   UNL     1      -0.646  -4.273   2.567  0.00  0.00    +0.046 A 
BRANCH  21  27
ATOM     27  O   UNL     1      -1.022  -2.513   1.158  0.00  0.00    -0.494 OA
BRANCH  27  28
ATOM     28  C   UNL     1      -1.362  -2.030  -0.143  0.00  0.00    +0.210 C 
BRANCH  28  29
ATOM     29  C   UNL     1      -1.370  -0.500  -0.133  0.00  0.00    -0.038 C 
BRANCH  29  31
ATOM     30  C   UNL     1       0.866  -0.358  -0.993  0.00  0.00    -0.096 C 
ATOM     31  N   UNL     1      -0.012  -0.005   0.131  0.00  0.00    +0.378 N 
ATOM     32  C   UNL     1      -0.044   1.455   0.287  0.00  0.00    -0.096 C 
ATOM     33  H   UNL     1       0.341  -0.426   0.978  0.00  0.00    -0.082 HD
ENDBRANCH  29  31
ENDBRANCH  28  29
ENDBRANCH  27  28
ENDBRANCH  21  27
ENDBRANCH  19  24
ENDBRANCH   1  20
TORSDOF 7
