REMARK  Name = CHEMBL468787
REMARK  3 active torsions:
REMARK  status: ('A' for Active; 'I' for Inactive)
REMARK    1  A    between atoms: C_1  and  N_2
REMARK    2  A    between atoms: C_13  and  C_28
REMARK    3  A    between atoms: C_15  and  C_18
REMARK                            x       y       z     vdW  Elec       q    Type
REMARK                         _______ _______ _______ _____ _____    ______ ____
ROOT
ATOM      1  C   UNL     1       0.292   1.448   0.173  0.00  0.00    +0.105 C 
ATOM      2  N   UNL     1       0.159  -0.013   0.085  0.00  0.00    -0.302 NA
ATOM      3  C   UNL     1      -1.251  -0.418   0.154  0.00  0.00    +0.103 C 
ATOM      4  C   UNL     1      -1.361  -1.922  -0.122  0.00  0.00    +0.122 C 
ATOM      5  N   UNL     1      -0.463  -2.633   0.801  0.00  0.00    -0.312 N 
ATOM      6  C   UNL     1       0.938  -2.192   0.888  0.00  0.00    +0.122 C 
ATOM      7  C   UNL     1       0.957  -0.677   1.124  0.00  0.00    +0.103 C 
ATOM      8  C   UNL     1      -0.924  -3.692   1.568  0.00  0.00    +0.140 A 
ATOM      9  C   UNL     1      -2.193  -4.240   1.311  0.00  0.00    +0.155 A 
ATOM     10  N   UNL     1      -2.645  -5.241   2.027  0.00  0.00    -0.250 NA
ATOM     11  C   UNL     1      -1.894  -5.749   3.012  0.00  0.00    +0.090 A 
ATOM     12  C   UNL     1      -2.357  -6.823   3.792  0.00  0.00    +0.042 A 
ATOM     13  C   UNL     1      -1.581  -7.328   4.791  0.00  0.00    +0.058 A 
ATOM     14  C   UNL     1      -0.324  -6.800   5.060  0.00  0.00    +0.023 A 
ATOM     15  C   UNL     1       0.172  -5.743   4.317  0.00  0.00    +0.010 A 
ATOM     16  C   UNL     1      -0.616  -5.200   3.273  0.00  0.00    +0.099 A 
ATOM     17  N   UNL     1      -0.167  -4.183   2.532  0.00  0.00    -0.228 NA
ENDROOT
BRANCH  15  18
ATOM     18  C   UNL     1       1.512  -5.186   4.610  0.00  0.00    -0.015 A 
ATOM     19  C   UNL     1       2.435  -4.997   3.580  0.00  0.00    +0.010 A 
ATOM     20  C   UNL     1       3.680  -4.479   3.853  0.00  0.00    +0.024 A 
ATOM     21  C   UNL     1       4.032  -4.139   5.160  0.00  0.00    +0.037 A 
ATOM     22  C   UNL     1       3.107  -4.330   6.181  0.00  0.00    -0.017 A 
ATOM     23  C   UNL     1       1.859  -4.841   5.918  0.00  0.00    +0.014 A 
ATOM     24  C   UNL     1       3.780  -3.871   7.455  0.00  0.00    +0.133 C 
ATOM     25  C   UNL     1       5.153  -3.420   7.003  0.00  0.00    +0.222 C 
ATOM     26  O   UNL     1       6.032  -2.973   7.708  0.00  0.00    -0.275 OA
ATOM     27  N   UNL     1       5.214  -3.607   5.674  0.00  0.00    -0.285 N 
ATOM     28  H   UNL     1       5.992  -3.397   5.134  0.00  0.00    +0.155 HD
ENDBRANCH  15  18
BRANCH  13  29
ATOM     29  C   UNL     1      -2.094  -8.479   5.617  0.00  0.00    +0.418 C 
ATOM     30  F   UNL     1      -3.370  -8.841   5.171  0.00  0.00    -0.166 F 
ATOM     31  F   UNL     1      -1.227  -9.569   5.488  0.00  0.00    -0.166 F 
ATOM     32  F   UNL     1      -2.162  -8.094   6.961  0.00  0.00    -0.166 F 
ENDBRANCH  13  29
TORSDOF 2
