REMARK  Name = CHEMBL1089116
REMARK  6 active torsions:
REMARK  status: ('A' for Active; 'I' for Inactive)
REMARK    1  A    between atoms: C_1  and  C_2
REMARK    2  A    between atoms: C_2  and  N_3
REMARK    3  A    between atoms: C_5  and  C_24
REMARK    4  A    between atoms: C_6  and  C_8
REMARK    5  A    between atoms: C_11  and  N_14
REMARK    6  A    between atoms: N_17  and  C_18
REMARK                            x       y       z     vdW  Elec       q    Type
REMARK                         _______ _______ _______ _____ _____    ______ ____
ROOT
ATOM      1  C   UNL     1       1.664  -0.662  -4.789  0.00  0.00    +0.003 A 
ATOM      2  C   UNL     1       2.966  -0.703  -5.285  0.00  0.00    +0.012 A 
ATOM      3  C   UNL     1       3.190  -0.577  -6.640  0.00  0.00    +0.024 A 
ATOM      4  C   UNL     1       2.120  -0.409  -7.510  0.00  0.00    +0.035 A 
ATOM      5  C   UNL     1       0.821  -0.368  -7.018  0.00  0.00    +0.024 A 
ATOM      6  C   UNL     1       0.591  -0.499  -5.665  0.00  0.00    +0.012 A 
ENDROOT
BRANCH   4   7
ATOM      7  N   UNL     1       2.350  -0.281  -8.883  0.00  0.00    -0.269 N 
ATOM      8  C   UNL     1       3.351  -0.970  -9.466  0.00  0.00    +0.308 C 
ATOM      9  O   UNL     1       4.104  -1.639  -8.786  0.00  0.00    -0.252 OA
ATOM     10  N   UNL     1       3.516  -0.917 -10.803  0.00  0.00    -0.269 N 
ATOM     11  H   UNL     1       1.790   0.305  -9.417  0.00  0.00    +0.156 HD
ATOM     12  H   UNL     1       2.963  -0.326 -11.337  0.00  0.00    +0.156 HD
BRANCH  10  13
ATOM     13  C   UNL     1       4.486  -1.716 -11.420  0.00  0.00    +0.035 A 
ATOM     14  C   UNL     1       5.172  -1.244 -12.531  0.00  0.00    +0.023 A 
ATOM     15  C   UNL     1       6.129  -2.034 -13.137  0.00  0.00    +0.002 A 
ATOM     16  C   UNL     1       6.403  -3.295 -12.639  0.00  0.00    +0.000 A 
ATOM     17  C   UNL     1       5.721  -3.768 -11.534  0.00  0.00    +0.002 A 
ATOM     18  C   UNL     1       4.767  -2.980 -10.919  0.00  0.00    +0.023 A 
ENDBRANCH  10  13
ENDBRANCH   4   7
BRANCH   1  22
ATOM     19  N   UNL     1       0.581  -1.379  -1.380  0.00  0.00    -0.271 N 
ATOM     20  C   UNL     1       1.615  -0.558  -1.110  0.00  0.00    +0.117 A 
ATOM     21  C   UNL     1       2.164  -0.174  -2.299  0.00  0.00    +0.028 A 
ATOM     22  C   UNL     1       1.420  -0.798  -3.333  0.00  0.00    +0.100 A 
ATOM     23  N   UNL     1       0.478  -1.521  -2.769  0.00  0.00    -0.171 NA
BRANCH  21  24
ATOM     24  C   UNL     1       3.325   0.729  -2.476  0.00  0.00    -0.002 A 
ATOM     25  C   UNL     1       4.599   0.357  -2.047  0.00  0.00    +0.029 A 
ATOM     26  C   UNL     1       5.656   1.229  -2.232  0.00  0.00    +0.114 A 
ATOM     27  N   UNL     1       5.491   2.405  -2.803  0.00  0.00    -0.237 NA
ATOM     28  C   UNL     1       4.305   2.818  -3.232  0.00  0.00    +0.139 A 
ATOM     29  C   UNL     1       3.179   1.988  -3.088  0.00  0.00    +0.026 A 
ATOM     30  C   UNL     1       2.052   2.721  -3.660  0.00  0.00    +0.029 A 
ATOM     31  C   UNL     1       2.534   3.894  -4.103  0.00  0.00    +0.085 A 
ATOM     32  N   UNL     1       3.877   3.971  -3.846  0.00  0.00    -0.346 N 
ATOM     33  H   UNL     1       4.446   4.723  -4.075  0.00  0.00    +0.167 HD
ENDBRANCH  21  24
BRANCH  19  35
ATOM     34  C   UNL     1      -1.746  -1.680  -0.690  0.00  0.00    +0.029 C 
ATOM     35  C   UNL     1      -0.286  -2.020  -0.388  0.00  0.00    +0.140 C 
ENDBRANCH  19  35
ENDBRANCH   1  22
TORSDOF 5
