REMARK  Name = CHEMBL459875
REMARK  5 active torsions:
REMARK  status: ('A' for Active; 'I' for Inactive)
REMARK    1  A    between atoms: C_4  and  C_7
REMARK    2  A    between atoms: C_11  and  C_14
REMARK    3  A    between atoms: N_16  and  C_17
REMARK    4  A    between atoms: C_20  and  O_24
REMARK    5  A    between atoms: O_24  and  C_25
REMARK                            x       y       z     vdW  Elec       q    Type
REMARK                         _______ _______ _______ _____ _____    ______ ____
ROOT
ATOM      1  C   UNL     1       3.577  -6.157  -0.841  0.00  0.00    +0.037 A 
ATOM      2  C   UNL     1       4.691  -6.907  -0.487  0.00  0.00    +0.027 A 
ATOM      3  C   UNL     1       4.665  -8.283  -0.609  0.00  0.00    +0.051 A 
ATOM      4  C   UNL     1       3.526  -8.916  -1.085  0.00  0.00    +0.164 A 
ATOM      5  C   UNL     1       2.411  -8.167  -1.440  0.00  0.00    +0.167 A 
ATOM      6  C   UNL     1       2.434  -6.790  -1.312  0.00  0.00    +0.065 A 
ATOM      7  F   UNL     1       1.302  -8.784  -1.904  0.00  0.00    -0.202 F 
ENDROOT
BRANCH   1  10
ATOM      8  C   UNL     1       4.378  -4.184   0.222  0.00  0.00    +0.268 C 
ATOM      9  O   UNL     1       5.143  -4.862   0.881  0.00  0.00    -0.268 OA
ATOM     10  N   UNL     1       3.604  -4.763  -0.717  0.00  0.00    -0.280 N 
ATOM     11  H   UNL     1       3.065  -4.213  -1.307  0.00  0.00    +0.155 HD
BRANCH   8  16
ATOM     12  C   UNL     1       5.111  -0.838   1.517  0.00  0.00    +0.093 A 
ATOM     13  C   UNL     1       4.164  -0.032   0.886  0.00  0.00    +0.030 A 
ATOM     14  C   UNL     1       3.259  -0.608   0.010  0.00  0.00    +0.004 A 
ATOM     15  C   UNL     1       3.327  -1.974  -0.211  0.00  0.00    +0.035 A 
ATOM     16  C   UNL     1       4.298  -2.725   0.451  0.00  0.00    +0.147 A 
ATOM     17  N   UNL     1       5.155  -2.142   1.281  0.00  0.00    -0.127 N 
ATOM     18  O   UNL     1       6.133  -2.931   1.933  0.00  0.00    -0.163 OA
BRANCH  12  22
ATOM     19  C   UNL     1       7.900   0.906   4.212  0.00  0.00    +0.000 A 
ATOM     20  C   UNL     1       6.595   1.363   4.179  0.00  0.00    +0.001 A 
ATOM     21  C   UNL     1       5.686   0.801   3.306  0.00  0.00    +0.010 A 
ATOM     22  C   UNL     1       6.084  -0.230   2.457  0.00  0.00    +0.002 A 
ATOM     23  C   UNL     1       7.401  -0.686   2.494  0.00  0.00    +0.010 A 
ATOM     24  C   UNL     1       8.301  -0.117   3.371  0.00  0.00    +0.001 A 
ENDBRANCH  12  22
ENDBRANCH   8  16
ENDBRANCH   1  10
BRANCH   4  25
ATOM     25  O   UNL     1       3.502 -10.270  -1.205  0.00  0.00    -0.452 OA
BRANCH  25  26
ATOM     26  C   UNL     1       3.535 -10.800  -2.454  0.00  0.00    +0.141 A 
ATOM     27  C   UNL     1       3.707  -9.991  -3.571  0.00  0.00    +0.066 A 
ATOM     28  C   UNL     1       3.736 -10.568  -4.828  0.00  0.00    +0.117 A 
ATOM     29  N   UNL     1       3.604 -11.868  -4.994  0.00  0.00    -0.237 NA
ATOM     30  C   UNL     1       3.437 -12.692  -3.966  0.00  0.00    +0.142 A 
ATOM     31  C   UNL     1       3.403 -12.181  -2.657  0.00  0.00    +0.061 A 
ATOM     32  C   UNL     1       3.216 -13.331  -1.772  0.00  0.00    +0.032 A 
ATOM     33  C   UNL     1       3.157 -14.419  -2.555  0.00  0.00    +0.085 A 
ATOM     34  N   UNL     1       3.279 -14.054  -3.870  0.00  0.00    -0.346 N 
ATOM     35  H   UNL     1       3.266 -14.667  -4.622  0.00  0.00    +0.167 HD
ENDBRANCH  25  26
ENDBRANCH   4  25
TORSDOF 5
