REMARK  Name = CHEMBL256767
REMARK  8 active torsions:
REMARK  status: ('A' for Active; 'I' for Inactive)
REMARK    1  A    between atoms: C_4  and  C_7
REMARK    2  A    between atoms: C_7  and  C_8
REMARK    3  A    between atoms: N_10  and  C_11
REMARK    4  A    between atoms: C_11  and  N_13
REMARK    5  A    between atoms: N_13  and  C_14
REMARK    6  A    between atoms: C_17  and  O_21
REMARK    7  A    between atoms: O_21  and  C_22
REMARK    8  A    between atoms: C_29  and  C_31
REMARK                            x       y       z     vdW  Elec       q    Type
REMARK                         _______ _______ _______ _____ _____    ______ ____
ROOT
ATOM      1  C   UNL     1       7.376  -2.815   4.374  0.00  0.00    +0.036 A 
ATOM      2  C   UNL     1       6.561  -2.600   5.478  0.00  0.00    +0.027 A 
ATOM      3  C   UNL     1       7.014  -2.915   6.744  0.00  0.00    +0.051 A 
ATOM      4  C   UNL     1       8.284  -3.447   6.914  0.00  0.00    +0.164 A 
ATOM      5  C   UNL     1       9.101  -3.662   5.811  0.00  0.00    +0.167 A 
ATOM      6  C   UNL     1       8.645  -3.352   4.543  0.00  0.00    +0.065 A 
ATOM      7  F   UNL     1      10.337  -4.180   5.977  0.00  0.00    -0.202 F 
ENDROOT
BRANCH   1   8
ATOM      8  N   UNL     1       6.916  -2.495   3.091  0.00  0.00    -0.297 N 
ATOM      9  H   UNL     1       6.000  -2.694   2.841  0.00  0.00    +0.154 HD
BRANCH   8  10
ATOM     10  C   UNL     1       7.745  -1.912   2.203  0.00  0.00    +0.141 C 
ATOM     11  S   UNL     1       9.316  -1.431   2.687  0.00  0.00    -0.018 S 
BRANCH  10  14
ATOM     12  C   UNL     1       8.168  -1.123   0.047  0.00  0.00    +0.223 C 
ATOM     13  O   UNL     1       9.281  -0.783   0.390  0.00  0.00    -0.275 OA
ATOM     14  N   UNL     1       7.339  -1.707   0.935  0.00  0.00    -0.267 N 
ATOM     15  H   UNL     1       6.449  -1.979   0.661  0.00  0.00    +0.157 HD
BRANCH  12  16
ATOM     16  C   UNL     1       7.714  -0.894  -1.371  0.00  0.00    +0.131 C 
BRANCH  16  20
ATOM     17  C   UNL     1      10.847   0.982  -3.587  0.00  0.00    +0.000 A 
ATOM     18  C   UNL     1      10.765  -0.397  -3.538  0.00  0.00    +0.000 A 
ATOM     19  C   UNL     1       9.752  -1.004  -2.821  0.00  0.00    +0.004 A 
ATOM     20  C   UNL     1       8.820  -0.232  -2.152  0.00  0.00    -0.039 A 
ATOM     21  C   UNL     1       8.902   1.147  -2.201  0.00  0.00    +0.004 A 
ATOM     22  C   UNL     1       9.915   1.754  -2.919  0.00  0.00    +0.000 A 
ENDBRANCH  16  20
ENDBRANCH  12  16
ENDBRANCH  10  14
ENDBRANCH   8  10
ENDBRANCH   1   8
BRANCH   4  23
ATOM     23  O   UNL     1       8.729  -3.756   8.161  0.00  0.00    -0.452 OA
BRANCH  23  24
ATOM     24  C   UNL     1       9.495  -2.842   8.810  0.00  0.00    +0.146 A 
ATOM     25  C   UNL     1       9.893  -1.665   8.182  0.00  0.00    +0.067 A 
ATOM     26  C   UNL     1      10.674  -0.769   8.896  0.00  0.00    +0.115 A 
ATOM     27  N   UNL     1      11.046  -0.992  10.130  0.00  0.00    -0.254 NA
ATOM     28  C   UNL     1      10.699  -2.111  10.807  0.00  0.00    +0.082 A 
ATOM     29  C   UNL     1       9.898  -3.048  10.118  0.00  0.00    +0.080 A 
ATOM     30  S   UNL     1       9.653  -4.341  11.308  0.00  0.00    -0.080 S 
ATOM     31  C   UNL     1      10.582  -3.629  12.655  0.00  0.00    +0.059 A 
ATOM     32  C   UNL     1      11.035  -2.463  12.128  0.00  0.00    +0.047 A 
BRANCH  31  33
ATOM     33  C   UNL     1      10.813  -4.179  14.007  0.00  0.00    +0.166 A 
ATOM     34  N   UNL     1      11.537  -3.483  14.876  0.00  0.00    -0.235 NA
ATOM     35  C   UNL     1      11.762  -3.948  16.093  0.00  0.00    +0.114 A 
ATOM     36  C   UNL     1      11.232  -5.177  16.457  0.00  0.00    +0.039 A 
ATOM     37  C   UNL     1      10.480  -5.878  15.526  0.00  0.00    +0.114 A 
ATOM     38  N   UNL     1      10.288  -5.356  14.327  0.00  0.00    -0.235 NA
ENDBRANCH  31  33
ENDBRANCH  23  24
ENDBRANCH   4  23
TORSDOF 8
