REMARK  Name = CHEMBL401838
REMARK  8 active torsions:
REMARK  status: ('A' for Active; 'I' for Inactive)
REMARK    1  A    between atoms: C_4  and  C_7
REMARK    2  A    between atoms: C_7  and  C_8
REMARK    3  A    between atoms: N_10  and  C_11
REMARK    4  A    between atoms: C_11  and  N_13
REMARK    5  A    between atoms: N_13  and  C_14
REMARK    6  A    between atoms: C_17  and  O_21
REMARK    7  A    between atoms: O_21  and  C_22
REMARK    8  A    between atoms: C_29  and  C_31
REMARK                            x       y       z     vdW  Elec       q    Type
REMARK                         _______ _______ _______ _____ _____    ______ ____
ROOT
ATOM      1  C   UNL     1       6.867  -2.389   4.644  0.00  0.00    +0.036 A 
ATOM      2  C   UNL     1       6.220  -1.989   5.806  0.00  0.00    +0.027 A 
ATOM      3  C   UNL     1       6.720  -2.362   7.038  0.00  0.00    +0.051 A 
ATOM      4  C   UNL     1       7.868  -3.136   7.117  0.00  0.00    +0.164 A 
ATOM      5  C   UNL     1       8.516  -3.537   5.956  0.00  0.00    +0.167 A 
ATOM      6  C   UNL     1       8.014  -3.169   4.722  0.00  0.00    +0.065 A 
ATOM      7  F   UNL     1       9.635  -4.291   6.032  0.00  0.00    -0.202 F 
ENDROOT
BRANCH   1   8
ATOM      8  N   UNL     1       6.360  -2.012   3.395  0.00  0.00    -0.297 N 
ATOM      9  H   UNL     1       5.412  -2.102   3.208  0.00  0.00    +0.154 HD
BRANCH   8  10
ATOM     10  C   UNL     1       7.189  -1.523   2.451  0.00  0.00    +0.141 C 
ATOM     11  S   UNL     1       8.838  -1.249   2.819  0.00  0.00    -0.018 S 
BRANCH  10  14
ATOM     12  C   UNL     1       7.549  -0.763   0.273  0.00  0.00    +0.223 C 
ATOM     13  O   UNL     1       8.717  -0.568   0.534  0.00  0.00    -0.275 OA
ATOM     14  N   UNL     1       6.720  -1.251   1.217  0.00  0.00    -0.267 N 
ATOM     15  H   UNL     1       5.785  -1.407   1.008  0.00  0.00    +0.157 HD
BRANCH  12  16
ATOM     16  C   UNL     1       7.024  -0.459  -1.106  0.00  0.00    +0.131 C 
BRANCH  16  20
ATOM     17  C   UNL     1      10.196   1.045  -3.540  0.00  0.00    +0.000 A 
ATOM     18  C   UNL     1       9.947  -0.314  -3.491  0.00  0.00    +0.000 A 
ATOM     19  C   UNL     1       8.920  -0.801  -2.704  0.00  0.00    +0.004 A 
ATOM     20  C   UNL     1       8.143   0.072  -1.964  0.00  0.00    -0.039 A 
ATOM     21  C   UNL     1       8.394   1.430  -2.012  0.00  0.00    +0.004 A 
ATOM     22  C   UNL     1       9.419   1.917  -2.801  0.00  0.00    +0.000 A 
ENDBRANCH  16  20
ENDBRANCH  12  16
ENDBRANCH  10  14
ENDBRANCH   8  10
ENDBRANCH   1   8
BRANCH   4  23
ATOM     23  O   UNL     1       8.359  -3.502   8.331  0.00  0.00    -0.452 OA
BRANCH  23  24
ATOM     24  C   UNL     1       9.333  -2.733   8.883  0.00  0.00    +0.146 A 
ATOM     25  C   UNL     1       9.889  -1.668   8.182  0.00  0.00    +0.067 A 
ATOM     26  C   UNL     1      10.880  -0.918   8.798  0.00  0.00    +0.115 A 
ATOM     27  N   UNL     1      11.307  -1.178  10.006  0.00  0.00    -0.254 NA
ATOM     28  C   UNL     1      10.817  -2.196  10.751  0.00  0.00    +0.082 A 
ATOM     29  C   UNL     1       9.801  -2.982  10.164  0.00  0.00    +0.080 A 
ATOM     30  S   UNL     1       9.421  -4.178  11.418  0.00  0.00    -0.078 S 
ATOM     31  C   UNL     1      10.576  -3.624  12.660  0.00  0.00    +0.077 A 
ATOM     32  C   UNL     1      11.192  -2.574  12.053  0.00  0.00    +0.049 A 
BRANCH  31  33
ATOM     33  C   UNL     1      10.813  -4.174  14.004  0.00  0.00    +0.253 C 
ATOM     34  O   UNL     1      11.405  -3.514  14.836  0.00  0.00    -0.269 OA
ATOM     35  N   UNL     1      10.373  -5.410  14.313  0.00  0.00    -0.293 N 
ATOM     36  C   UNL     1       9.763  -6.275  13.291  0.00  0.00    +0.136 C 
ATOM     37  C   UNL     1      10.452  -7.643  13.342  0.00  0.00    +0.179 C 
ATOM     38  O   UNL     1      10.427  -8.133  14.685  0.00  0.00    -0.377 OA
ATOM     39  C   UNL     1      11.141  -7.319  15.618  0.00  0.00    +0.179 C 
ATOM     40  C   UNL     1      10.493  -5.936  15.682  0.00  0.00    +0.136 C 
ENDBRANCH  31  33
ENDBRANCH  23  24
ENDBRANCH   4  23
TORSDOF 8
