REMARK  Name = CHEMBL461831
REMARK  9 active torsions:
REMARK  status: ('A' for Active; 'I' for Inactive)
REMARK    1  A    between atoms: C_1  and  N_2
REMARK    2  A    between atoms: C_5  and  C_17
REMARK    3  A    between atoms: N_9  and  C_10
REMARK    4  A    between atoms: C_20  and  O_24
REMARK    5  A    between atoms: O_24  and  C_25
REMARK    6  A    between atoms: C_32  and  O_37
REMARK    7  A    between atoms: C_33  and  O_35
REMARK    8  A    between atoms: O_35  and  C_36
REMARK    9  A    between atoms: O_37  and  C_38
REMARK                            x       y       z     vdW  Elec       q    Type
REMARK                         _______ _______ _______ _____ _____    ______ ____
ROOT
ATOM      1  C   UNL     1       0.754  -2.745  -2.552  0.00  0.00    -0.008 A 
ATOM      2  C   UNL     1       1.911  -2.541  -3.304  0.00  0.00    +0.012 A 
ATOM      3  C   UNL     1       2.087  -3.216  -4.494  0.00  0.00    +0.050 A 
ATOM      4  C   UNL     1       1.115  -4.098  -4.945  0.00  0.00    +0.164 A 
ATOM      5  C   UNL     1      -0.040  -4.305  -4.199  0.00  0.00    +0.166 A 
ATOM      6  C   UNL     1      -0.219  -3.637  -3.003  0.00  0.00    +0.050 A 
ATOM      7  F   UNL     1      -0.984  -5.163  -4.640  0.00  0.00    -0.202 F 
ENDROOT
BRANCH   1  12
ATOM      8  C   UNL     1       0.098   1.459  -0.007  0.00  0.00    +0.155 C 
ATOM      9  N   UNL     1       0.248   0.003  -0.064  0.00  0.00    -0.283 N 
ATOM     10  C   UNL     1       0.421  -0.612  -1.254  0.00  0.00    +0.263 A 
ATOM     11  O   UNL     1       0.455   0.033  -2.289  0.00  0.00    -0.267 OA
ATOM     12  C   UNL     1       0.563  -2.022  -1.274  0.00  0.00    +0.065 A 
ATOM     13  C   UNL     1       0.518  -2.709  -0.070  0.00  0.00    +0.128 A 
ATOM     14  N   UNL     1       0.345  -2.041   1.066  0.00  0.00    -0.223 NA
ATOM     15  C   UNL     1       0.219  -0.729   1.082  0.00  0.00    +0.202 A 
ATOM     16  N   UNL     1       0.048  -0.088   2.281  0.00  0.00    -0.285 N 
ATOM     17  H   UNL     1       0.030   0.881   2.315  0.00  0.00    +0.155 HD
BRANCH  16  18
ATOM     18  C   UNL     1      -0.100  -0.832   3.458  0.00  0.00    +0.034 A 
ATOM     19  C   UNL     1       0.397  -0.341   4.658  0.00  0.00    +0.026 A 
ATOM     20  C   UNL     1       0.250  -1.076   5.817  0.00  0.00    +0.040 A 
ATOM     21  C   UNL     1      -0.392  -2.303   5.784  0.00  0.00    +0.124 A 
ATOM     22  C   UNL     1      -0.888  -2.794   4.588  0.00  0.00    +0.040 A 
ATOM     23  C   UNL     1      -0.748  -2.059   3.427  0.00  0.00    +0.026 A 
ATOM     24  F   UNL     1      -0.535  -3.020   6.920  0.00  0.00    -0.205 F 
ENDBRANCH  16  18
ENDBRANCH   1  12
BRANCH   4  25
ATOM     25  O   UNL     1       1.292  -4.761  -6.119  0.00  0.00    -0.452 OA
BRANCH  25  26
ATOM     26  C   UNL     1       0.762  -4.217  -7.242  0.00  0.00    +0.139 A 
ATOM     27  C   UNL     1      -0.023  -3.079  -7.183  0.00  0.00    +0.066 A 
ATOM     28  C   UNL     1      -0.552  -2.545  -8.351  0.00  0.00    +0.115 A 
ATOM     29  N   UNL     1      -0.329  -3.091  -9.524  0.00  0.00    -0.255 NA
ATOM     30  C   UNL     1       0.420  -4.191  -9.655  0.00  0.00    +0.078 A 
ATOM     31  C   UNL     1       0.999  -4.793  -8.511  0.00  0.00    +0.046 A 
ATOM     32  C   UNL     1       1.788  -5.944  -8.652  0.00  0.00    +0.063 A 
ATOM     33  C   UNL     1       1.996  -6.473  -9.893  0.00  0.00    +0.162 A 
ATOM     34  C   UNL     1       1.428  -5.877 -11.028  0.00  0.00    +0.164 A 
ATOM     35  C   UNL     1       0.648  -4.762 -10.918  0.00  0.00    +0.077 A 
BRANCH  34  36
ATOM     36  O   UNL     1       1.649  -6.422 -12.253  0.00  0.00    -0.491 OA
ATOM     37  C   UNL     1       1.045  -5.770 -13.372  0.00  0.00    +0.277 C 
ENDBRANCH  34  36
BRANCH  33  38
ATOM     38  O   UNL     1       2.761  -7.588 -10.030  0.00  0.00    -0.491 OA
ATOM     39  C   UNL     1       3.312  -8.148  -8.836  0.00  0.00    +0.277 C 
ENDBRANCH  33  38
ENDBRANCH  25  26
ENDBRANCH   4  25
TORSDOF 6
