REMARK  Name = CHEMBL495899
REMARK  4 active torsions:
REMARK  status: ('A' for Active; 'I' for Inactive)
REMARK    1  A    between atoms: C_4  and  C_7
REMARK    2  A    between atoms: C_13  and  C_16
REMARK    3  A    between atoms: C_16  and  C_17
REMARK    4  A    between atoms: C_20  and  O_23
REMARK                            x       y       z     vdW  Elec       q    Type
REMARK                         _______ _______ _______ _____ _____    ______ ____
ROOT
ATOM      1  C   UNL     1       3.699  -0.689  -0.037  0.00  0.00    +0.017 A 
ATOM      2  C   UNL     1       4.566  -0.577  -1.147  0.00  0.00    +0.124 A 
ATOM      3  N   UNL     1       5.711  -1.215  -1.159  0.00  0.00    -0.218 NA
ATOM      4  C   UNL     1       6.083  -1.984  -0.126  0.00  0.00    +0.255 A 
ATOM      5  N   UNL     1       7.158  -2.718   0.110  0.00  0.00    -0.108 NA
ATOM      6  N   UNL     1       7.053  -3.282   1.261  0.00  0.00    -0.132 NA
ATOM      7  C   UNL     1       5.923  -2.951   1.827  0.00  0.00    +0.143 A 
ATOM      8  N   UNL     1       5.268  -2.119   0.972  0.00  0.00    -0.270 N 
ATOM      9  C   UNL     1       4.072  -1.467   1.023  0.00  0.00    +0.106 A 
ENDROOT
BRANCH   1  13
ATOM     10  C   UNL     1      -0.017   1.379   0.010  0.00  0.00    +0.000 A 
ATOM     11  C   UNL     1       1.169   2.092   0.002  0.00  0.00    +0.001 A 
ATOM     12  C   UNL     1       2.377   1.426  -0.013  0.00  0.00    +0.008 A 
ATOM     13  C   UNL     1       2.402   0.033  -0.021  0.00  0.00    -0.015 A 
ATOM     14  C   UNL     1       1.205  -0.680  -0.013  0.00  0.00    +0.008 A 
ATOM     15  C   UNL     1       0.002  -0.004   0.002  0.00  0.00    +0.001 A 
ENDBRANCH   1  13
BRANCH   7  16
ATOM     16  C   UNL     1       5.434  -3.407   3.178  0.00  0.00    +0.111 C 
BRANCH  16  17
ATOM     17  C   UNL     1       5.901  -2.439   4.234  0.00  0.00    -0.040 A 
ATOM     18  C   UNL     1       7.119  -2.635   4.859  0.00  0.00    +0.007 A 
ATOM     19  C   UNL     1       7.550  -1.750   5.828  0.00  0.00    +0.045 A 
ATOM     20  C   UNL     1       6.760  -0.663   6.174  0.00  0.00    +0.117 A 
ATOM     21  C   UNL     1       5.539  -0.469   5.545  0.00  0.00    +0.045 A 
ATOM     22  C   UNL     1       5.115  -1.354   4.573  0.00  0.00    +0.007 A 
BRANCH  20  23
ATOM     23  O   UNL     1       7.181   0.209   7.127  0.00  0.00    -0.507 OA
ATOM     24  H   UNL     1       7.701   0.948   6.782  0.00  0.00    +0.292 HD
ENDBRANCH  20  23
ENDBRANCH  16  17
ENDBRANCH   7  16
TORSDOF 4
