REMARK  Name = CHEMBL428944
REMARK  8 active torsions:
REMARK  status: ('A' for Active; 'I' for Inactive)
REMARK    1  A    between atoms: C_6  and  C_7
REMARK    2  A    between atoms: C_7  and  C_8
REMARK    3  A    between atoms: N_13  and  C_14
REMARK    4  A    between atoms: C_17  and  O_21
REMARK    5  A    between atoms: O_21  and  C_22
REMARK    6  A    between atoms: C_24  and  C_31
REMARK    7  A    between atoms: C_31  and  N_32
REMARK    8  A    between atoms: C_35  and  N_38
REMARK                            x       y       z     vdW  Elec       q    Type
REMARK                         _______ _______ _______ _____ _____    ______ ____
ROOT
ATOM      1  C   UNL     1      -5.235  -2.432  -4.458  0.00  0.00    +0.038 A 
ATOM      2  C   UNL     1      -4.972  -3.726  -4.887  0.00  0.00    +0.027 A 
ATOM      3  C   UNL     1      -5.364  -4.129  -6.148  0.00  0.00    +0.051 A 
ATOM      4  C   UNL     1      -6.021  -3.242  -6.988  0.00  0.00    +0.166 A 
ATOM      5  C   UNL     1      -6.285  -1.947  -6.560  0.00  0.00    +0.167 A 
ATOM      6  C   UNL     1      -5.898  -1.544  -5.295  0.00  0.00    +0.065 A 
ATOM      7  F   UNL     1      -6.926  -1.083  -7.378  0.00  0.00    -0.202 F 
ENDROOT
BRANCH   1  13
ATOM      8  C   UNL     1      -6.044   0.002  -0.503  0.00  0.00    +0.225 C 
ATOM      9  O   UNL     1      -7.036   0.482  -1.008  0.00  0.00    -0.275 OA
ATOM     10  N   UNL     1      -5.274  -0.851  -1.208  0.00  0.00    -0.240 N 
ATOM     11  C   UNL     1      -5.607  -1.170  -2.474  0.00  0.00    +0.310 C 
ATOM     12  O   UNL     1      -6.602  -0.689  -2.980  0.00  0.00    -0.252 OA
ATOM     13  N   UNL     1      -4.838  -2.023  -3.179  0.00  0.00    -0.269 N 
ATOM     14  H   UNL     1      -4.481  -1.235  -0.803  0.00  0.00    +0.159 HD
ATOM     15  H   UNL     1      -4.008  -2.354  -2.800  0.00  0.00    +0.156 HD
BRANCH   8  16
ATOM     16  C   UNL     1      -5.672   0.359   0.913  0.00  0.00    +0.131 C 
BRANCH  16  22
ATOM     17  C   UNL     1      -7.804   0.842   2.132  0.00  0.00    +0.007 A 
ATOM     18  C   UNL     1      -8.736   1.724   2.645  0.00  0.00    +0.038 A 
ATOM     19  C   UNL     1      -8.551   3.089   2.498  0.00  0.00    +0.123 A 
ATOM     20  C   UNL     1      -7.433   3.568   1.837  0.00  0.00    +0.038 A 
ATOM     21  C   UNL     1      -6.502   2.684   1.325  0.00  0.00    +0.007 A 
ATOM     22  C   UNL     1      -6.687   1.322   1.472  0.00  0.00    -0.038 A 
ATOM     23  F   UNL     1      -9.462   3.952   2.999  0.00  0.00    -0.205 F 
ENDBRANCH  16  22
ENDBRANCH   8  16
ENDBRANCH   1  13
BRANCH   4  24
ATOM     24  O   UNL     1      -6.405  -3.640  -8.230  0.00  0.00    -0.433 OA
BRANCH  24  25
ATOM     25  C   UNL     1      -5.573  -3.384  -9.266  0.00  0.00    +0.248 A 
ATOM     26  C   UNL     1      -5.873  -3.863 -10.559  0.00  0.00    +0.132 A 
ATOM     27  C   UNL     1      -6.913  -4.604 -11.088  0.00  0.00    -0.001 A 
ATOM     28  C   UNL     1      -6.647  -4.760 -12.449  0.00  0.00    +0.027 A 
ATOM     29  C   UNL     1      -5.476  -4.126 -12.722  0.00  0.00    +0.113 A 
ATOM     30  N   UNL     1      -4.997  -3.579 -11.590  0.00  0.00    -0.233 N 
ATOM     31  N   UNL     1      -3.849  -2.828 -11.298  0.00  0.00    -0.155 NA
ATOM     32  C   UNL     1      -3.631  -2.417 -10.079  0.00  0.00    +0.247 A 
ATOM     33  N   UNL     1      -4.471  -2.679  -9.079  0.00  0.00    -0.198 NA
BRANCH  27  34
ATOM     34  C   UNL     1      -8.105  -5.141 -10.339  0.00  0.00    +0.121 C 
BRANCH  34  35
ATOM     35  N   UNL     1      -7.693  -6.291  -9.523  0.00  0.00    -0.300 NA
ATOM     36  C   UNL     1      -7.375  -7.463 -10.377  0.00  0.00    +0.083 C 
ATOM     37  C   UNL     1      -7.496  -8.678  -9.433  0.00  0.00    +0.000 C 
ATOM     38  C   UNL     1      -8.440  -8.215  -8.304  0.00  0.00    -0.060 C 
ATOM     39  C   UNL     1      -8.809  -6.760  -8.662  0.00  0.00    +0.068 C 
BRANCH  38  40
ATOM     40  N   UNL     1      -9.644  -9.056  -8.269  0.00  0.00    +0.381 N 
ATOM     41  H   UNL     1      -9.382 -10.012  -8.080  0.00  0.00    -0.090 HD
ATOM     42  H   UNL     1     -10.262  -8.727  -7.542  0.00  0.00    -0.090 HD
ATOM     43  H   UNL     1     -10.115  -9.006  -9.160  0.00  0.00    -0.090 HD
ENDBRANCH  38  40
ENDBRANCH  34  35
ENDBRANCH  27  34
ENDBRANCH  24  25
ENDBRANCH   4  24
TORSDOF 8
