REMARK  Name = CHEMBL1171941
REMARK  4 active torsions:
REMARK  status: ('A' for Active; 'I' for Inactive)
REMARK    1  A    between atoms: C_1  and  C_2
REMARK    2  A    between atoms: C_7  and  N_10
REMARK    3  A    between atoms: C_12  and  C_15
REMARK    4  A    between atoms: C_17  and  C_22
REMARK                            x       y       z     vdW  Elec       q    Type
REMARK                         _______ _______ _______ _____ _____    ______ ____
ROOT
ATOM      1  C   UNL     1      -4.867  -3.608   5.606  0.00  0.00    +0.004 A 
ATOM      2  C   UNL     1      -5.981  -4.258   6.135  0.00  0.00    +0.026 A 
ATOM      3  C   UNL     1      -5.918  -4.711   7.455  0.00  0.00    +0.077 A 
ATOM      4  C   UNL     1      -4.741  -4.495   8.192  0.00  0.00    +0.128 A 
ATOM      5  N   UNL     1      -3.709  -3.872   7.646  0.00  0.00    -0.239 NA
ATOM      6  C   UNL     1      -3.736  -3.438   6.401  0.00  0.00    +0.121 A 
ATOM      7  N   UNL     1      -4.661  -4.938   9.502  0.00  0.00    -0.343 N 
ATOM      8  H   UNL     1      -5.443  -5.311   9.937  0.00  0.00    +0.144 HD
ATOM      9  H   UNL     1      -3.822  -4.874   9.985  0.00  0.00    +0.144 HD
ENDROOT
BRANCH   3  10
ATOM     10  C   UNL     1      -7.069  -5.405   8.066  0.00  0.00    +0.232 A 
ATOM     11  N   UNL     1      -8.312  -4.998   8.001  0.00  0.00    -0.209 NA
ATOM     12  C   UNL     1      -9.095  -5.881   8.673  0.00  0.00    +0.110 A 
ATOM     13  C   UNL     1     -10.467  -5.953   8.928  0.00  0.00    +0.031 A 
ATOM     14  C   UNL     1     -10.971  -7.003   9.662  0.00  0.00    +0.002 A 
ATOM     15  C   UNL     1     -10.125  -7.988  10.150  0.00  0.00    +0.004 A 
ATOM     16  C   UNL     1      -8.768  -7.931   9.906  0.00  0.00    +0.048 A 
ATOM     17  C   UNL     1      -8.243  -6.881   9.168  0.00  0.00    +0.156 A 
ATOM     18  O   UNL     1      -6.995  -6.553   8.766  0.00  0.00    -0.435 OA
ENDBRANCH   3  10
BRANCH   1  21
ATOM     19  N   UNL     1      -4.279  -2.179   2.318  0.00  0.00    -0.268 N 
ATOM     20  C   UNL     1      -3.864  -2.464   3.570  0.00  0.00    +0.117 A 
ATOM     21  C   UNL     1      -4.883  -3.108   4.207  0.00  0.00    +0.021 A 
ATOM     22  C   UNL     1      -5.953  -3.213   3.299  0.00  0.00    +0.143 A 
ATOM     23  N   UNL     1      -5.590  -2.652   2.175  0.00  0.00    -0.179 NA
BRANCH  19  30
ATOM     24  C   UNL     1      -0.696   2.602   0.570  0.00  0.00    +0.109 C 
ATOM     25  C   UNL     1      -0.430   1.121   0.483  0.00  0.00    +0.212 C 
ATOM     26  O   UNL     1       0.710   0.708   0.494  0.00  0.00    -0.276 OA
ATOM     27  N   UNL     1      -1.460   0.256   0.395  0.00  0.00    -0.302 N 
ATOM     28  C   UNL     1      -2.846   0.742   0.374  0.00  0.00    +0.110 C 
ATOM     29  C   UNL     1      -3.636   0.024   1.473  0.00  0.00    +0.046 C 
ATOM     30  C   UNL     1      -3.498  -1.489   1.289  0.00  0.00    +0.110 C 
ATOM     31  C   UNL     1      -2.026  -1.887   1.415  0.00  0.00    +0.046 C 
ATOM     32  C   UNL     1      -1.217  -1.191   0.310  0.00  0.00    +0.110 C 
ENDBRANCH  19  30
ENDBRANCH   1  21
TORSDOF 3
