REMARK  Name = CHEMBL500422
REMARK  8 active torsions:
REMARK  status: ('A' for Active; 'I' for Inactive)
REMARK    1  A    between atoms: C_5  and  C_7
REMARK    2  A    between atoms: C_8  and  C_9
REMARK    3  A    between atoms: C_10  and  O_16
REMARK    4  A    between atoms: C_14  and  N_15
REMARK    5  A    between atoms: O_16  and  C_17
REMARK    6  A    between atoms: C_20  and  N_24
REMARK    7  A    between atoms: C_28  and  C_30
REMARK    8  A    between atoms: C_30  and  C_31
REMARK                            x       y       z     vdW  Elec       q    Type
REMARK                         _______ _______ _______ _____ _____    ______ ____
ROOT
ATOM      1  C   UNL     1       4.814  -5.552  -0.016  0.00  0.00    +0.164 A 
ATOM      2  C   UNL     1       4.671  -6.930  -0.080  0.00  0.00    +0.051 A 
ATOM      3  C   UNL     1       5.790  -7.739  -0.116  0.00  0.00    +0.027 A 
ATOM      4  C   UNL     1       7.058  -7.174  -0.088  0.00  0.00    +0.038 A 
ATOM      5  C   UNL     1       7.201  -5.795  -0.024  0.00  0.00    +0.065 A 
ATOM      6  C   UNL     1       6.082  -4.984   0.006  0.00  0.00    +0.167 A 
ATOM      7  F   UNL     1       6.220  -3.642   0.062  0.00  0.00    -0.202 F 
ENDROOT
BRANCH   4   8
ATOM      8  N   UNL     1       8.192  -7.996  -0.123  0.00  0.00    -0.269 N 
ATOM      9  C   UNL     1       8.179  -9.131  -0.850  0.00  0.00    +0.310 C 
ATOM     10  O   UNL     1       7.161  -9.478  -1.417  0.00  0.00    -0.252 OA
ATOM     11  N   UNL     1       9.294  -9.881  -0.949  0.00  0.00    -0.240 N 
ATOM     12  C   UNL     1       9.282 -11.016  -1.675  0.00  0.00    +0.225 C 
ATOM     13  O   UNL     1       8.267 -11.362  -2.240  0.00  0.00    -0.275 OA
ATOM     14  H   UNL     1       8.986  -7.748   0.375  0.00  0.00    +0.156 HD
ATOM     15  H   UNL     1      10.107  -9.603  -0.496  0.00  0.00    +0.159 HD
BRANCH  12  16
ATOM     16  C   UNL     1      10.529 -11.854  -1.785  0.00  0.00    +0.131 C 
BRANCH  16  17
ATOM     17  C   UNL     1      10.250 -13.059  -2.647  0.00  0.00    -0.038 A 
ATOM     18  C   UNL     1       9.787 -14.227  -2.071  0.00  0.00    +0.007 A 
ATOM     19  C   UNL     1       9.531 -15.333  -2.860  0.00  0.00    +0.038 A 
ATOM     20  C   UNL     1       9.738 -15.269  -4.227  0.00  0.00    +0.123 A 
ATOM     21  C   UNL     1      10.202 -14.099  -4.803  0.00  0.00    +0.038 A 
ATOM     22  C   UNL     1      10.452 -12.993  -4.013  0.00  0.00    +0.007 A 
ATOM     23  F   UNL     1       9.488 -16.349  -4.999  0.00  0.00    -0.205 F 
ENDBRANCH  16  17
ENDBRANCH  12  16
ENDBRANCH   4   8
BRANCH   1  24
ATOM     24  O   UNL     1       3.712  -4.755   0.019  0.00  0.00    -0.452 OA
BRANCH  24  26
ATOM     25  C   UNL     1       2.041  -3.534  -1.202  0.00  0.00    +0.107 A 
ATOM     26  C   UNL     1       3.235  -4.275  -1.156  0.00  0.00    +0.149 A 
ATOM     27  C   UNL     1       3.915  -4.502  -2.349  0.00  0.00    +0.067 A 
ATOM     28  C   UNL     1       3.403  -4.000  -3.527  0.00  0.00    +0.116 A 
ATOM     29  N   UNL     1       2.279  -3.307  -3.547  0.00  0.00    -0.239 NA
ATOM     30  C   UNL     1       1.587  -3.064  -2.445  0.00  0.00    +0.135 A 
BRANCH  30  31
ATOM     31  N   UNL     1       0.409  -2.336  -2.518  0.00  0.00    -0.342 N 
ATOM     32  H   UNL     1      -0.099  -2.153  -1.712  0.00  0.00    +0.144 HD
ATOM     33  H   UNL     1       0.093  -2.009  -3.375  0.00  0.00    +0.144 HD
ENDBRANCH  30  31
BRANCH  25  35
ATOM     34  C   UNL     1       0.691  -3.054   0.975  0.00  0.00    -0.041 C 
ATOM     35  C   UNL     1       1.299  -3.270  -0.006  0.00  0.00    -0.052 C 
BRANCH  34  40
ATOM     36  C   UNL     1      -1.943  -1.809   3.267  0.00  0.00    +0.004 A 
ATOM     37  C   UNL     1      -1.440  -2.302   4.464  0.00  0.00    +0.020 A 
ATOM     38  C   UNL     1      -0.259  -3.021   4.460  0.00  0.00    +0.112 A 
ATOM     39  N   UNL     1       0.395  -3.244   3.338  0.00  0.00    -0.247 NA
ATOM     40  C   UNL     1      -0.051  -2.789   2.171  0.00  0.00    +0.114 A 
ATOM     41  C   UNL     1      -1.239  -2.055   2.103  0.00  0.00    +0.037 A 
ENDBRANCH  34  40
ENDBRANCH  25  35
ENDBRANCH  24  26
ENDBRANCH   1  24
TORSDOF 8
