REMARK  Name = CHEMBL462914
REMARK  4 active torsions:
REMARK  status: ('A' for Active; 'I' for Inactive)
REMARK    1  A    between atoms: C_1  and  N_2
REMARK    2  A    between atoms: C_13  and  C_25
REMARK    3  A    between atoms: C_15  and  C_18
REMARK    4  A    between atoms: C_21  and  O_24
REMARK                            x       y       z     vdW  Elec       q    Type
REMARK                         _______ _______ _______ _____ _____    ______ ____
ROOT
ATOM      1  C   UNL     1       0.296   1.447   0.163  0.00  0.00    -0.096 C 
ATOM      2  N   UNL     1       0.155  -0.013   0.076  0.00  0.00    +0.380 N 
ATOM      3  C   UNL     1      -1.259  -0.376   0.234  0.00  0.00    -0.060 C 
ATOM      4  C   UNL     1      -1.423  -1.886   0.030  0.00  0.00    +0.088 C 
ATOM      5  N   UNL     1      -0.511  -2.583   0.950  0.00  0.00    -0.318 N 
ATOM      6  C   UNL     1       0.899  -2.167   0.975  0.00  0.00    +0.088 C 
ATOM      7  C   UNL     1       0.954  -0.644   1.134  0.00  0.00    -0.060 C 
ATOM      8  C   UNL     1      -0.969  -3.603   1.771  0.00  0.00    +0.140 A 
ATOM      9  C   UNL     1      -2.257  -4.131   1.577  0.00  0.00    +0.155 A 
ATOM     10  N   UNL     1      -2.705  -5.095   2.344  0.00  0.00    -0.250 NA
ATOM     11  C   UNL     1      -1.932  -5.584   3.322  0.00  0.00    +0.090 A 
ATOM     12  C   UNL     1      -2.391  -6.617   4.156  0.00  0.00    +0.042 A 
ATOM     13  C   UNL     1      -1.592  -7.104   5.146  0.00  0.00    +0.058 A 
ATOM     14  C   UNL     1      -0.316  -6.594   5.354  0.00  0.00    +0.023 A 
ATOM     15  C   UNL     1       0.176  -5.576   4.556  0.00  0.00    +0.010 A 
ATOM     16  C   UNL     1      -0.634  -5.053   3.520  0.00  0.00    +0.099 A 
ATOM     17  N   UNL     1      -0.189  -4.074   2.726  0.00  0.00    -0.228 NA
ATOM     18  H   UNL     1       0.482  -0.328  -0.824  0.00  0.00    -0.082 HD
ENDROOT
BRANCH  15  19
ATOM     19  C   UNL     1       1.537  -5.038   4.785  0.00  0.00    -0.016 A 
ATOM     20  C   UNL     1       2.426  -4.908   3.717  0.00  0.00    +0.012 A 
ATOM     21  C   UNL     1       3.692  -4.407   3.934  0.00  0.00    +0.046 A 
ATOM     22  C   UNL     1       4.083  -4.032   5.212  0.00  0.00    +0.117 A 
ATOM     23  C   UNL     1       3.200  -4.159   6.277  0.00  0.00    +0.046 A 
ATOM     24  C   UNL     1       1.931  -4.654   6.067  0.00  0.00    +0.012 A 
BRANCH  22  25
ATOM     25  O   UNL     1       5.331  -3.539   5.422  0.00  0.00    -0.507 OA
ATOM     26  H   UNL     1       5.395  -2.578   5.333  0.00  0.00    +0.292 HD
ENDBRANCH  22  25
ENDBRANCH  15  19
BRANCH  13  27
ATOM     27  C   UNL     1      -2.101  -8.211   6.032  0.00  0.00    +0.418 C 
ATOM     28  F   UNL     1      -3.398  -8.562   5.642  0.00  0.00    -0.166 F 
ATOM     29  F   UNL     1      -1.262  -9.325   5.914  0.00  0.00    -0.166 F 
ATOM     30  F   UNL     1      -2.115  -7.777   7.362  0.00  0.00    -0.166 F 
ENDBRANCH  13  27
TORSDOF 3
