REMARK  Name = CHEMBL511592
REMARK  3 active torsions:
REMARK  status: ('A' for Active; 'I' for Inactive)
REMARK    1  A    between atoms: C_1  and  N_2
REMARK    2  A    between atoms: C_13  and  C_30
REMARK    3  A    between atoms: C_15  and  C_18
REMARK                            x       y       z     vdW  Elec       q    Type
REMARK                         _______ _______ _______ _____ _____    ______ ____
ROOT
ATOM      1  C   UNL     1       0.292   1.448   0.173  0.00  0.00    +0.105 C 
ATOM      2  N   UNL     1       0.160  -0.013   0.085  0.00  0.00    -0.302 NA
ATOM      3  C   UNL     1      -1.250  -0.418   0.154  0.00  0.00    +0.103 C 
ATOM      4  C   UNL     1      -1.360  -1.922  -0.122  0.00  0.00    +0.122 C 
ATOM      5  N   UNL     1      -0.463  -2.633   0.801  0.00  0.00    -0.312 N 
ATOM      6  C   UNL     1       0.938  -2.192   0.888  0.00  0.00    +0.122 C 
ATOM      7  C   UNL     1       0.957  -0.678   1.124  0.00  0.00    +0.103 C 
ATOM      8  C   UNL     1      -0.925  -3.692   1.569  0.00  0.00    +0.140 A 
ATOM      9  C   UNL     1      -2.194  -4.239   1.312  0.00  0.00    +0.155 A 
ATOM     10  N   UNL     1      -2.646  -5.240   2.028  0.00  0.00    -0.250 NA
ATOM     11  C   UNL     1      -1.894  -5.748   3.013  0.00  0.00    +0.090 A 
ATOM     12  C   UNL     1      -2.358  -6.821   3.793  0.00  0.00    +0.042 A 
ATOM     13  C   UNL     1      -1.581  -7.327   4.792  0.00  0.00    +0.058 A 
ATOM     14  C   UNL     1      -0.324  -6.800   5.061  0.00  0.00    +0.023 A 
ATOM     15  C   UNL     1       0.171  -5.743   4.317  0.00  0.00    +0.010 A 
ATOM     16  C   UNL     1      -0.616  -5.199   3.274  0.00  0.00    +0.099 A 
ATOM     17  N   UNL     1      -0.167  -4.182   2.532  0.00  0.00    -0.228 NA
ENDROOT
BRANCH  15  18
ATOM     18  C   UNL     1       1.512  -5.186   4.611  0.00  0.00    -0.014 A 
ATOM     19  C   UNL     1       2.432  -4.999   3.576  0.00  0.00    +0.011 A 
ATOM     20  C   UNL     1       3.680  -4.481   3.846  0.00  0.00    +0.028 A 
ATOM     21  C   UNL     1       4.026  -4.143   5.147  0.00  0.00    +0.067 A 
ATOM     22  C   UNL     1       3.110  -4.327   6.186  0.00  0.00    +0.067 A 
ATOM     23  C   UNL     1       1.853  -4.842   5.917  0.00  0.00    +0.036 A 
ATOM     24  N   UNL     1       3.736  -3.903   7.356  0.00  0.00    -0.306 N 
ATOM     25  H   UNL     1       3.347  -3.911   8.244  0.00  0.00    +0.170 HD
ATOM     26  C   UNL     1       4.976  -3.480   7.043  0.00  0.00    +0.325 A 
ATOM     27  O   UNL     1       5.789  -3.045   7.837  0.00  0.00    -0.247 OA
ATOM     28  N   UNL     1       5.180  -3.612   5.719  0.00  0.00    -0.306 N 
ATOM     29  H   UNL     1       5.992  -3.378   5.244  0.00  0.00    +0.170 HD
ENDBRANCH  15  18
BRANCH  13  30
ATOM     30  C   UNL     1      -2.094  -8.478   5.618  0.00  0.00    +0.418 C 
ATOM     31  F   UNL     1      -3.370  -8.841   5.172  0.00  0.00    -0.166 F 
ATOM     32  F   UNL     1      -1.228  -9.569   5.487  0.00  0.00    -0.166 F 
ATOM     33  F   UNL     1      -2.162  -8.094   6.962  0.00  0.00    -0.166 F 
ENDBRANCH  13  30
TORSDOF 2
