REMARK  Name = CHEMBL550158
REMARK  8 active torsions:
REMARK  status: ('A' for Active; 'I' for Inactive)
REMARK    1  A    between atoms: C_1  and  C_2
REMARK    2  A    between atoms: C_2  and  C_3
REMARK    3  A    between atoms: C_2  and  C_4
REMARK    4  A    between atoms: C_2  and  O_5
REMARK    5  A    between atoms: O_5  and  C_6
REMARK    6  A    between atoms: N_11  and  C_14
REMARK    7  A    between atoms: N_20  and  S_21
REMARK    8  A    between atoms: S_21  and  C_24
REMARK                            x       y       z     vdW  Elec       q    Type
REMARK                         _______ _______ _______ _____ _____    ______ ____
ROOT
ATOM      1  C   UNL     1       4.269  -0.968  -6.490  0.00  0.00    +0.048 A 
ATOM      2  C   UNL     1       5.545  -0.428  -6.592  0.00  0.00    +0.054 A 
ATOM      3  C   UNL     1       6.285  -0.699  -7.739  0.00  0.00    +0.090 A 
ATOM      4  C   UNL     1       5.717  -1.504  -8.744  0.00  0.00    +0.066 A 
ATOM      5  C   UNL     1       6.729  -1.599  -9.800  0.00  0.00    +0.047 A 
ATOM      6  C   UNL     1       7.791  -0.885  -9.393  0.00  0.00    +0.114 A 
ATOM      7  N   UNL     1       7.544  -0.340  -8.164  0.00  0.00    -0.215 N 
ATOM      8  N   UNL     1       4.491  -1.999  -8.601  0.00  0.00    -0.358 N 
ATOM      9  C   UNL     1       3.775  -1.760  -7.524  0.00  0.00    +0.106 A 
ATOM     10  H   UNL     1       4.118  -2.551  -9.305  0.00  0.00    +0.165 HD
ENDROOT
BRANCH   1  16
ATOM     11  C   UNL     1       1.732  -1.088  -1.793  0.00  0.00    +0.403 C 
ATOM     12  O   UNL     1       2.203  -0.482  -0.851  0.00  0.00    -0.226 OA
ATOM     13  N   UNL     1       2.484  -1.324  -2.886  0.00  0.00    -0.264 N 
ATOM     14  C   UNL     1       1.925  -2.050  -4.036  0.00  0.00    +0.130 C 
ATOM     15  C   UNL     1       2.096  -1.187  -5.291  0.00  0.00    +0.124 C 
ATOM     16  N   UNL     1       3.489  -0.723  -5.356  0.00  0.00    -0.326 N 
ATOM     17  C   UNL     1       4.048   0.004  -4.207  0.00  0.00    +0.124 C 
ATOM     18  C   UNL     1       3.875  -0.856  -2.953  0.00  0.00    +0.130 C 
BRANCH  11  19
ATOM     19  O   UNL     1       0.459  -1.523  -1.745  0.00  0.00    -0.445 OA
BRANCH  19  21
ATOM     20  C   UNL     1      -0.355   0.278  -0.353  0.00  0.00    +0.055 C 
ATOM     21  C   UNL     1      -0.280  -1.237  -0.555  0.00  0.00    +0.107 C 
ATOM     22  C   UNL     1       0.419  -1.878   0.645  0.00  0.00    +0.055 C 
ATOM     23  C   UNL     1      -1.695  -1.805  -0.684  0.00  0.00    +0.055 C 
ENDBRANCH  19  21
ENDBRANCH  11  19
ENDBRANCH   1  16
BRANCH   7  24
ATOM     24  S   UNL     1       8.601   0.611  -7.314  0.00  0.00    +0.103 S 
ATOM     25  O   UNL     1       8.629   0.102  -5.987  0.00  0.00    -0.146 OA
ATOM     26  O   UNL     1       9.772   0.727  -8.110  0.00  0.00    -0.146 OA
BRANCH  24  27
ATOM     27  C   UNL     1       7.893   2.222  -7.221  0.00  0.00    +0.224 A 
ATOM     28  C   UNL     1       7.880   3.140  -8.202  0.00  0.00    +0.176 A 
ATOM     29  N   UNL     1       7.252   4.236  -7.748  0.00  0.00    -0.208 NA
ATOM     30  C   UNL     1       6.874   4.028  -6.519  0.00  0.00    +0.180 A 
ATOM     31  N   UNL     1       7.240   2.771  -6.119  0.00  0.00    -0.276 N 
ATOM     32  C   UNL     1       6.902   2.401  -4.835  0.00  0.00    +0.102 A 
ATOM     33  C   UNL     1       6.245   3.239  -4.035  0.00  0.00    +0.067 A 
ATOM     34  S   UNL     1       6.059   4.676  -5.079  0.00  0.00    -0.058 S 
ATOM     35 CL   UNL     1       8.562   2.944  -9.786  0.00  0.00    -0.058 Cl
ENDBRANCH  24  27
ENDBRANCH   7  24
TORSDOF 5
