REMARK  Name = CHEMBL253656
REMARK  7 active torsions:
REMARK  status: ('A' for Active; 'I' for Inactive)
REMARK    1  A    between atoms: C_6  and  C_7
REMARK    2  A    between atoms: C_7  and  C_8
REMARK    3  A    between atoms: N_13  and  C_14
REMARK    4  A    between atoms: C_17  and  O_21
REMARK    5  A    between atoms: O_21  and  C_22
REMARK    6  A    between atoms: C_24  and  C_31
REMARK    7  A    between atoms: C_31  and  N_32
REMARK                            x       y       z     vdW  Elec       q    Type
REMARK                         _______ _______ _______ _____ _____    ______ ____
ROOT
ATOM      1  C   UNL     1      -4.765  -2.887  -4.481  0.00  0.00    +0.038 A 
ATOM      2  C   UNL     1      -3.888  -2.518  -5.493  0.00  0.00    +0.027 A 
ATOM      3  C   UNL     1      -4.197  -2.794  -6.810  0.00  0.00    +0.051 A 
ATOM      4  C   UNL     1      -5.383  -3.440  -7.124  0.00  0.00    +0.166 A 
ATOM      5  C   UNL     1      -6.262  -3.810  -6.113  0.00  0.00    +0.167 A 
ATOM      6  C   UNL     1      -5.950  -3.538  -4.793  0.00  0.00    +0.065 A 
ATOM      7  F   UNL     1      -7.418  -4.439  -6.418  0.00  0.00    -0.202 F 
ENDROOT
BRANCH   1  13
ATOM      8  C   UNL     1      -4.782  -4.109   0.072  0.00  0.00    +0.225 C 
ATOM      9  O   UNL     1      -5.435  -5.093  -0.201  0.00  0.00    -0.275 OA
ATOM     10  N   UNL     1      -4.430  -3.243  -0.899  0.00  0.00    -0.240 N 
ATOM     11  C   UNL     1      -4.803  -3.472  -2.174  0.00  0.00    +0.310 C 
ATOM     12  O   UNL     1      -5.457  -4.459  -2.448  0.00  0.00    -0.252 OA
ATOM     13  N   UNL     1      -4.450  -2.606  -3.145  0.00  0.00    -0.269 N 
ATOM     14  H   UNL     1      -3.908  -2.455  -0.680  0.00  0.00    +0.159 HD
ATOM     15  H   UNL     1      -3.979  -1.789  -2.918  0.00  0.00    +0.156 HD
BRANCH   8  16
ATOM     16  C   UNL     1      -4.365  -3.853   1.497  0.00  0.00    +0.131 C 
BRANCH  16  22
ATOM     17  C   UNL     1      -4.110  -6.086   2.598  0.00  0.00    +0.007 A 
ATOM     18  C   UNL     1      -4.583  -7.102   3.406  0.00  0.00    +0.038 A 
ATOM     19  C   UNL     1      -5.831  -6.993   3.996  0.00  0.00    +0.123 A 
ATOM     20  C   UNL     1      -6.604  -5.866   3.775  0.00  0.00    +0.038 A 
ATOM     21  C   UNL     1      -6.128  -4.851   2.967  0.00  0.00    +0.007 A 
ATOM     22  C   UNL     1      -4.882  -4.960   2.379  0.00  0.00    -0.038 A 
ATOM     23  F   UNL     1      -6.295  -7.987   4.786  0.00  0.00    -0.205 F 
ENDBRANCH  16  22
ENDBRANCH   8  16
ENDBRANCH   1  13
BRANCH   4  24
ATOM     24  O   UNL     1      -5.688  -3.711  -8.421  0.00  0.00    -0.433 OA
BRANCH  24  25
ATOM     25  C   UNL     1      -5.530  -4.982  -8.859  0.00  0.00    +0.248 A 
ATOM     26  C   UNL     1      -5.932  -5.343 -10.164  0.00  0.00    +0.132 A 
ATOM     27  C   UNL     1      -6.505  -4.652 -11.214  0.00  0.00    -0.001 A 
ATOM     28  C   UNL     1      -6.667  -5.564 -12.258  0.00  0.00    +0.027 A 
ATOM     29  C   UNL     1      -6.200  -6.770 -11.835  0.00  0.00    +0.113 A 
ATOM     30  N   UNL     1      -5.753  -6.651 -10.572  0.00  0.00    -0.233 N 
ATOM     31  N   UNL     1      -5.181  -7.557  -9.667  0.00  0.00    -0.155 NA
ATOM     32  C   UNL     1      -4.832  -7.157  -8.476  0.00  0.00    +0.247 A 
ATOM     33  N   UNL     1      -4.994  -5.897  -8.073  0.00  0.00    -0.198 NA
BRANCH  27  34
ATOM     34  C   UNL     1      -6.882  -3.193 -11.231  0.00  0.00    +0.122 C 
BRANCH  34  35
ATOM     35  N   UNL     1      -5.684  -2.380 -11.479  0.00  0.00    -0.294 NA
ATOM     36  C   UNL     1      -4.740  -2.477 -10.357  0.00  0.00    +0.113 C 
ATOM     37  C   UNL     1      -3.483  -1.665 -10.682  0.00  0.00    +0.175 C 
ATOM     38  O   UNL     1      -3.855  -0.312 -10.961  0.00  0.00    -0.377 OA
ATOM     39  C   UNL     1      -4.774  -0.180 -12.049  0.00  0.00    +0.175 C 
ATOM     40  C   UNL     1      -6.043  -0.978 -11.737  0.00  0.00    +0.113 C 
ENDBRANCH  34  35
ENDBRANCH  27  34
ENDBRANCH  24  25
ENDBRANCH   4  24
TORSDOF 7
