REMARK  Name = CHEMBL1096519
REMARK  6 active torsions:
REMARK  status: ('A' for Active; 'I' for Inactive)
REMARK    1  A    between atoms: C_3  and  O_26
REMARK    2  A    between atoms: C_6  and  N_7
REMARK    3  A    between atoms: C_9  and  C_14
REMARK    4  A    between atoms: N_16  and  C_17
REMARK    5  A    between atoms: O_26  and  C_27
REMARK    6  A    between atoms: C_31  and  N_33
REMARK                            x       y       z     vdW  Elec       q    Type
REMARK                         _______ _______ _______ _____ _____    ______ ____
ROOT
ATOM      1  N   UNL     1      -1.230  -0.615  -0.479  0.00  0.00    -0.298 N 
ATOM      2  C   UNL     1      -1.278  -1.978  -0.251  0.00  0.00    +0.154 A 
ATOM      3  C   UNL     1      -2.510  -2.655  -0.273  0.00  0.00    +0.166 A 
ATOM      4  N   UNL     1      -2.545  -3.966  -0.053  0.00  0.00    -0.245 NA
ATOM      5  C   UNL     1      -1.428  -4.624   0.185  0.00  0.00    +0.131 A 
ATOM      6  C   UNL     1      -0.212  -3.957   0.207  0.00  0.00    +0.132 A 
ATOM      7  N   UNL     1      -0.161  -2.656  -0.015  0.00  0.00    -0.236 NA
ATOM      8  H   UNL     1      -2.052  -0.105  -0.550  0.00  0.00    +0.154 HD
ENDROOT
BRANCH   1  14
ATOM      9  C   UNL     1       0.167   1.324  -0.130  0.00  0.00    +0.027 A 
ATOM     10  C   UNL     1       1.387   1.960  -0.257  0.00  0.00    +0.051 A 
ATOM     11  C   UNL     1       2.451   1.307  -0.860  0.00  0.00    +0.164 A 
ATOM     12  C   UNL     1       2.291   0.013  -1.339  0.00  0.00    +0.167 A 
ATOM     13  C   UNL     1       1.071  -0.625  -1.212  0.00  0.00    +0.065 A 
ATOM     14  C   UNL     1       0.006   0.030  -0.608  0.00  0.00    +0.035 A 
ATOM     15  F   UNL     1       3.328  -0.623  -1.927  0.00  0.00    -0.202 F 
BRANCH  11  16
ATOM     16  O   UNL     1       3.651   1.935  -0.984  0.00  0.00    -0.453 OA
BRANCH  16  17
ATOM     17  C   UNL     1       3.739   3.228  -0.580  0.00  0.00    +0.133 A 
ATOM     18  C   UNL     1       3.831   3.548   0.774  0.00  0.00    +0.064 A 
ATOM     19  C   UNL     1       3.919   4.872   1.149  0.00  0.00    +0.088 A 
ATOM     20  N   UNL     1       3.918   5.834   0.245  0.00  0.00    -0.350 N 
ATOM     21  C   UNL     1       3.833   5.573  -1.052  0.00  0.00    +0.097 A 
ATOM     22  C   UNL     1       3.747   4.264  -1.506  0.00  0.00    +0.087 A 
ATOM     23  H   UNL     1       3.981   6.757   0.537  0.00  0.00    +0.166 HD
BRANCH  21  24
ATOM     24  N   UNL     1       3.836   6.620  -1.966  0.00  0.00    -0.345 N 
ATOM     25  H   UNL     1       3.899   7.537  -1.654  0.00  0.00    +0.144 HD
ATOM     26  H   UNL     1       3.773   6.435  -2.916  0.00  0.00    +0.144 HD
ENDBRANCH  21  24
ENDBRANCH  16  17
ENDBRANCH  11  16
ENDBRANCH   1  14
BRANCH   3  27
ATOM     27  C   UNL     1      -3.759  -1.913  -0.539  0.00  0.00    +0.270 C 
ATOM     28  O   UNL     1      -3.737  -0.702  -0.643  0.00  0.00    -0.268 OA
ATOM     29  N   UNL     1      -4.924  -2.579  -0.666  0.00  0.00    -0.278 N 
ATOM     30  H   UNL     1      -4.956  -3.535  -0.505  0.00  0.00    +0.155 HD
BRANCH  29  31
ATOM     31  C   UNL     1      -6.088  -1.891  -1.031  0.00  0.00    +0.069 A 
ATOM     32  C   UNL     1      -6.005  -0.760  -1.831  0.00  0.00    +0.029 A 
ATOM     33  C   UNL     1      -7.154  -0.082  -2.189  0.00  0.00    +0.040 A 
ATOM     34  C   UNL     1      -8.389  -0.530  -1.752  0.00  0.00    +0.126 A 
ATOM     35  C   UNL     1      -8.476  -1.657  -0.953  0.00  0.00    +0.078 A 
ATOM     36  C   UNL     1      -7.329  -2.343  -0.596  0.00  0.00    +0.147 A 
ATOM     37  F   UNL     1      -7.414  -3.447   0.178  0.00  0.00    -0.203 F 
ATOM     38  F   UNL     1      -9.511   0.135  -2.104  0.00  0.00    -0.205 F 
ENDBRANCH  29  31
ENDBRANCH   3  27
TORSDOF 6
