REMARK  Name = CHEMBL455386
REMARK  6 active torsions:
REMARK  status: ('A' for Active; 'I' for Inactive)
REMARK    1  A    between atoms: C_6  and  C_7
REMARK    2  A    between atoms: N_9  and  C_35
REMARK    3  A    between atoms: C_11  and  C_14
REMARK    4  A    between atoms: N_16  and  C_17
REMARK    5  A    between atoms: C_20  and  O_24
REMARK    6  A    between atoms: O_24  and  C_25
REMARK                            x       y       z     vdW  Elec       q    Type
REMARK                         _______ _______ _______ _____ _____    ______ ____
ROOT
ATOM      1  C   UNL     1      -3.535  -1.792   2.718  0.00  0.00    +0.253 C 
ATOM      2  O   UNL     1      -3.875  -2.896   3.099  0.00  0.00    -0.270 OA
ATOM      3  N   UNL     1      -4.064  -0.690   3.285  0.00  0.00    -0.281 N 
ATOM      4  H   UNL     1      -3.862   0.187   2.923  0.00  0.00    +0.155 HD
ENDROOT
BRANCH   1   9
ATOM      5  C   UNL     1      -0.974  -0.310   0.215  0.00  0.00    +0.046 A 
ATOM      6  C   UNL     1      -0.668  -1.470  -0.430  0.00  0.00    +0.098 A 
ATOM      7  N   UNL     1      -1.244  -2.645  -0.084  0.00  0.00    -0.349 N 
ATOM      8  C   UNL     1      -2.146  -2.758   0.902  0.00  0.00    +0.102 A 
ATOM      9  C   UNL     1      -2.544  -1.659   1.636  0.00  0.00    +0.100 A 
ATOM     10  C   UNL     1      -1.949  -0.353   1.313  0.00  0.00    +0.201 A 
ATOM     11  O   UNL     1      -2.257   0.654   1.929  0.00  0.00    -0.286 OA
BRANCH   5  17
ATOM     12  C   UNL     1      -1.100   2.001  -0.713  0.00  0.00    +0.011 A 
ATOM     13  C   UNL     1      -0.499   3.188  -1.077  0.00  0.00    +0.039 A 
ATOM     14  C   UNL     1       0.867   3.354  -0.913  0.00  0.00    +0.123 A 
ATOM     15  C   UNL     1       1.635   2.330  -0.383  0.00  0.00    +0.039 A 
ATOM     16  C   UNL     1       1.042   1.139  -0.016  0.00  0.00    +0.011 A 
ATOM     17  C   UNL     1      -0.332   0.968  -0.179  0.00  0.00    -0.013 A 
ATOM     18  F   UNL     1       1.452   4.518  -1.272  0.00  0.00    -0.205 F 
ENDBRANCH   5  17
BRANCH   7  19
ATOM     19  C   UNL     1      -0.866  -3.851  -0.824  0.00  0.00    +0.087 C 
ATOM     20  C   UNL     1       0.269  -3.728  -1.843  0.00  0.00    +0.027 C 
ATOM     21  C   UNL     1      -1.175  -3.888  -2.322  0.00  0.00    +0.027 C 
ENDBRANCH   7  19
ENDBRANCH   1   9
BRANCH   3  22
ATOM     22  C   UNL     1      -4.905  -0.811   4.398  0.00  0.00    +0.037 A 
ATOM     23  C   UNL     1      -5.720  -1.927   4.535  0.00  0.00    +0.027 A 
ATOM     24  C   UNL     1      -6.550  -2.047   5.632  0.00  0.00    +0.051 A 
ATOM     25  C   UNL     1      -6.570  -1.053   6.599  0.00  0.00    +0.164 A 
ATOM     26  C   UNL     1      -5.755   0.064   6.465  0.00  0.00    +0.167 A 
ATOM     27  C   UNL     1      -4.920   0.182   5.369  0.00  0.00    +0.065 A 
ATOM     28  F   UNL     1      -5.774   1.032   7.407  0.00  0.00    -0.202 F 
BRANCH  25  29
ATOM     29  O   UNL     1      -7.388  -1.171   7.679  0.00  0.00    -0.452 OA
BRANCH  29  30
ATOM     30  C   UNL     1      -8.463  -0.348   7.757  0.00  0.00    +0.141 A 
ATOM     31  C   UNL     1      -8.787   0.508   6.712  0.00  0.00    +0.066 A 
ATOM     32  C   UNL     1      -9.892   1.333   6.829  0.00  0.00    +0.117 A 
ATOM     33  N   UNL     1     -10.646   1.329   7.908  0.00  0.00    -0.237 NA
ATOM     34  C   UNL     1     -10.388   0.533   8.940  0.00  0.00    +0.142 A 
ATOM     35  C   UNL     1      -9.285  -0.338   8.893  0.00  0.00    +0.061 A 
ATOM     36  C   UNL     1      -9.286  -1.069  10.161  0.00  0.00    +0.032 A 
ATOM     37  C   UNL     1     -10.338  -0.625  10.866  0.00  0.00    +0.085 A 
ATOM     38  N   UNL     1     -11.002   0.339  10.153  0.00  0.00    -0.346 N 
ATOM     39  H   UNL     1     -11.796   0.807  10.457  0.00  0.00    +0.167 HD
ENDBRANCH  29  30
ENDBRANCH  25  29
ENDBRANCH   3  22
TORSDOF 6
