REMARK  Name = CHEMBL1171025
REMARK  4 active torsions:
REMARK  status: ('A' for Active; 'I' for Inactive)
REMARK    1  A    between atoms: C_4  and  C_7
REMARK    2  A    between atoms: C_12  and  N_15
REMARK    3  A    between atoms: C_17  and  C_20
REMARK    4  A    between atoms: C_22  and  C_27
REMARK                            x       y       z     vdW  Elec       q    Type
REMARK                         _______ _______ _______ _____ _____    ______ ____
ROOT
ATOM      1  N   UNL     1       4.047  -5.935   1.618  0.00  0.00    -0.268 N 
ATOM      2  C   UNL     1       4.285  -5.756   2.934  0.00  0.00    +0.117 A 
ATOM      3  C   UNL     1       4.158  -6.969   3.545  0.00  0.00    +0.021 A 
ATOM      4  C   UNL     1       3.831  -7.913   2.552  0.00  0.00    +0.143 A 
ATOM      5  N   UNL     1       3.760  -7.289   1.406  0.00  0.00    -0.179 NA
ENDROOT
BRANCH   3   6
ATOM      6  C   UNL     1       4.334  -7.244   4.994  0.00  0.00    +0.004 A 
ATOM      7  C   UNL     1       4.180  -8.539   5.489  0.00  0.00    +0.026 A 
ATOM      8  C   UNL     1       4.356  -8.748   6.859  0.00  0.00    +0.077 A 
ATOM      9  C   UNL     1       4.678  -7.653   7.678  0.00  0.00    +0.128 A 
ATOM     10  N   UNL     1       4.814  -6.442   7.161  0.00  0.00    -0.239 NA
ATOM     11  C   UNL     1       4.660  -6.213   5.872  0.00  0.00    +0.121 A 
ATOM     12  N   UNL     1       4.856  -7.842   9.039  0.00  0.00    -0.343 N 
ATOM     13  H   UNL     1       4.636  -8.696   9.443  0.00  0.00    +0.144 HD
ATOM     14  H   UNL     1       5.202  -7.121   9.588  0.00  0.00    +0.144 HD
BRANCH   8  15
ATOM     15  C   UNL     1       4.204 -10.098   7.437  0.00  0.00    +0.232 A 
ATOM     16  N   UNL     1       3.214 -10.917   7.184  0.00  0.00    -0.209 NA
ATOM     17  C   UNL     1       3.404 -12.062   7.888  0.00  0.00    +0.110 A 
ATOM     18  C   UNL     1       2.683 -13.254   8.004  0.00  0.00    +0.031 A 
ATOM     19  C   UNL     1       3.151 -14.257   8.823  0.00  0.00    +0.002 A 
ATOM     20  C   UNL     1       4.331 -14.092   9.533  0.00  0.00    +0.004 A 
ATOM     21  C   UNL     1       5.053 -12.921   9.428  0.00  0.00    +0.048 A 
ATOM     22  C   UNL     1       4.598 -11.900   8.608  0.00  0.00    +0.156 A 
ATOM     23  O   UNL     1       5.067 -10.670   8.298  0.00  0.00    -0.435 OA
ENDBRANCH   8  15
ENDBRANCH   3   6
BRANCH   1  29
ATOM     24  C   UNL     1       3.709  -0.888  -0.249  0.00  0.00    +0.247 C 
ATOM     25  O   UNL     1       2.587  -0.422  -0.272  0.00  0.00    -0.270 OA
ATOM     26  N   UNL     1       3.887  -2.221  -0.323  0.00  0.00    -0.297 N 
ATOM     27  C   UNL     1       2.746  -3.117  -0.557  0.00  0.00    +0.110 C 
ATOM     28  C   UNL     1       2.722  -4.183   0.542  0.00  0.00    +0.046 C 
ATOM     29  C   UNL     1       4.078  -4.892   0.590  0.00  0.00    +0.110 C 
ATOM     30  C   UNL     1       5.174  -3.878   0.924  0.00  0.00    +0.046 C 
ATOM     31  C   UNL     1       5.226  -2.807  -0.176  0.00  0.00    +0.110 C 
BRANCH  24  35
ATOM     32  C   UNL     1       7.072   1.689   0.066  0.00  0.00    +0.000 A 
ATOM     33  C   UNL     1       5.885   2.025   0.693  0.00  0.00    +0.001 A 
ATOM     34  C   UNL     1       4.789   1.193   0.594  0.00  0.00    +0.013 A 
ATOM     35  C   UNL     1       4.879   0.009  -0.140  0.00  0.00    +0.037 A 
ATOM     36  C   UNL     1       6.080  -0.324  -0.769  0.00  0.00    +0.013 A 
ATOM     37  C   UNL     1       7.168   0.517  -0.663  0.00  0.00    +0.001 A 
ENDBRANCH  24  35
ENDBRANCH   1  29
TORSDOF 4
