REMARK  Name = CHEMBL252415
REMARK  7 active torsions:
REMARK  status: ('A' for Active; 'I' for Inactive)
REMARK    1  A    between atoms: C_6  and  C_7
REMARK    2  A    between atoms: C_7  and  C_8
REMARK    3  A    between atoms: N_13  and  C_14
REMARK    4  A    between atoms: C_17  and  O_21
REMARK    5  A    between atoms: O_21  and  C_22
REMARK    6  A    between atoms: C_24  and  C_31
REMARK    7  A    between atoms: C_31  and  N_32
REMARK                            x       y       z     vdW  Elec       q    Type
REMARK                         _______ _______ _______ _____ _____    ______ ____
ROOT
ATOM      1  C   UNL     1      -4.880  -2.921  -4.437  0.00  0.00    +0.038 A 
ATOM      2  C   UNL     1      -4.697  -4.199  -4.950  0.00  0.00    +0.027 A 
ATOM      3  C   UNL     1      -5.156  -4.508  -6.215  0.00  0.00    +0.051 A 
ATOM      4  C   UNL     1      -5.802  -3.543  -6.974  0.00  0.00    +0.166 A 
ATOM      5  C   UNL     1      -5.987  -2.265  -6.462  0.00  0.00    +0.167 A 
ATOM      6  C   UNL     1      -5.531  -1.957  -5.194  0.00  0.00    +0.065 A 
ATOM      7  F   UNL     1      -6.615  -1.325  -7.202  0.00  0.00    -0.202 F 
ENDROOT
BRANCH   1  13
ATOM      8  C   UNL     1      -5.415  -0.691  -0.319  0.00  0.00    +0.225 C 
ATOM      9  O   UNL     1      -6.402  -0.137  -0.753  0.00  0.00    -0.275 OA
ATOM     10  N   UNL     1      -4.715  -1.535  -1.103  0.00  0.00    -0.240 N 
ATOM     11  C   UNL     1      -5.113  -1.764  -2.370  0.00  0.00    +0.310 C 
ATOM     12  O   UNL     1      -6.102  -1.209  -2.806  0.00  0.00    -0.252 OA
ATOM     13  N   UNL     1      -4.413  -2.608  -3.154  0.00  0.00    -0.269 N 
ATOM     14  H   UNL     1      -3.926  -1.978  -0.754  0.00  0.00    +0.159 HD
ATOM     15  H   UNL     1      -3.587  -2.999  -2.829  0.00  0.00    +0.156 HD
BRANCH   8  16
ATOM     16  C   UNL     1      -4.970  -0.436   1.099  0.00  0.00    +0.131 C 
BRANCH  16  22
ATOM     17  C   UNL     1      -7.027   0.072   2.431  0.00  0.00    +0.007 A 
ATOM     18  C   UNL     1      -7.895   0.964   3.032  0.00  0.00    +0.038 A 
ATOM     19  C   UNL     1      -7.650   2.325   2.956  0.00  0.00    +0.123 A 
ATOM     20  C   UNL     1      -6.537   2.791   2.277  0.00  0.00    +0.038 A 
ATOM     21  C   UNL     1      -5.671   1.897   1.677  0.00  0.00    +0.007 A 
ATOM     22  C   UNL     1      -5.916   0.538   1.754  0.00  0.00    -0.038 A 
ATOM     23  F   UNL     1      -8.498   3.198   3.543  0.00  0.00    -0.205 F 
ENDBRANCH  16  22
ENDBRANCH   8  16
ENDBRANCH   1  13
BRANCH   4  24
ATOM     24  O   UNL     1      -6.253  -3.849  -8.220  0.00  0.00    -0.433 OA
BRANCH  24  25
ATOM     25  C   UNL     1      -5.449  -3.572  -9.273  0.00  0.00    +0.248 A 
ATOM     26  C   UNL     1      -5.823  -3.959 -10.578  0.00  0.00    +0.132 A 
ATOM     27  C   UNL     1      -6.918  -4.617 -11.105  0.00  0.00    -0.001 A 
ATOM     28  C   UNL     1      -6.713  -4.705 -12.482  0.00  0.00    +0.027 A 
ATOM     29  C   UNL     1      -5.523  -4.112 -12.767  0.00  0.00    +0.113 A 
ATOM     30  N   UNL     1      -4.974  -3.656 -11.626  0.00  0.00    -0.233 N 
ATOM     31  N   UNL     1      -3.780  -2.979 -11.339  0.00  0.00    -0.155 NA
ATOM     32  C   UNL     1      -3.495  -2.651 -10.109  0.00  0.00    +0.247 A 
ATOM     33  N   UNL     1      -4.308  -2.932  -9.092  0.00  0.00    -0.198 NA
BRANCH  27  34
ATOM     34  C   UNL     1      -8.105  -5.141 -10.339  0.00  0.00    +0.121 C 
BRANCH  34  35
ATOM     35  N   UNL     1      -9.031  -4.036 -10.055  0.00  0.00    -0.302 NA
ATOM     36  C   UNL     1      -9.624  -3.514 -11.295  0.00  0.00    +0.065 C 
ATOM     37  C   UNL     1     -10.533  -2.329 -10.963  0.00  0.00    -0.067 C 
ATOM     38  N   UNL     1     -11.590  -2.766 -10.041  0.00  0.00    +0.381 N 
ATOM     39  C   UNL     1     -10.983  -3.261  -8.798  0.00  0.00    -0.067 C 
ATOM     40  C   UNL     1     -10.078  -4.454  -9.112  0.00  0.00    +0.065 C 
ATOM     41  H   UNL     1     -12.197  -1.988  -9.832  0.00  0.00    -0.086 HD
ATOM     42  H   UNL     1     -12.127  -3.505 -10.470  0.00  0.00    -0.086 HD
ENDBRANCH  34  35
ENDBRANCH  27  34
ENDBRANCH  24  25
ENDBRANCH   4  24
TORSDOF 7
