REMARK  Name = CHEMBL1171941
REMARK  4 active torsions:
REMARK  status: ('A' for Active; 'I' for Inactive)
REMARK    1  A    between atoms: C_1  and  C_2
REMARK    2  A    between atoms: C_7  and  N_10
REMARK    3  A    between atoms: C_12  and  C_15
REMARK    4  A    between atoms: C_17  and  C_22
REMARK                            x       y       z     vdW  Elec       q    Type
REMARK                         _______ _______ _______ _____ _____    ______ ____
ROOT
ATOM      1  C   UNL     1      -4.867  -3.608   5.606  0.00  0.00    +0.002 A 
ATOM      2  C   UNL     1      -5.981  -4.259   6.135  0.00  0.00    +0.026 A 
ATOM      3  C   UNL     1      -5.918  -4.712   7.455  0.00  0.00    +0.075 A 
ATOM      4  C   UNL     1      -4.741  -4.495   8.192  0.00  0.00    +0.106 A 
ATOM      5  N   UNL     1      -3.709  -3.872   7.646  0.00  0.00    -0.349 N 
ATOM      6  C   UNL     1      -3.736  -3.438   6.401  0.00  0.00    +0.092 A 
ATOM      7  N   UNL     1      -4.660  -4.937   9.502  0.00  0.00    -0.344 N 
ATOM      8  H   UNL     1      -5.443  -5.311   9.937  0.00  0.00    +0.144 HD
ATOM      9  H   UNL     1      -3.821  -4.873   9.985  0.00  0.00    +0.144 HD
ATOM     10  H   UNL     1      -2.908  -3.734   8.175  0.00  0.00    +0.167 HD
ENDROOT
BRANCH   3  11
ATOM     11  C   UNL     1      -7.068  -5.406   8.066  0.00  0.00    +0.232 A 
ATOM     12  N   UNL     1      -8.312  -4.999   8.002  0.00  0.00    -0.209 NA
ATOM     13  C   UNL     1      -9.095  -5.882   8.674  0.00  0.00    +0.110 A 
ATOM     14  C   UNL     1     -10.466  -5.954   8.929  0.00  0.00    +0.031 A 
ATOM     15  C   UNL     1     -10.970  -7.004   9.663  0.00  0.00    +0.002 A 
ATOM     16  C   UNL     1     -10.124  -7.989  10.151  0.00  0.00    +0.004 A 
ATOM     17  C   UNL     1      -8.767  -7.931   9.907  0.00  0.00    +0.048 A 
ATOM     18  C   UNL     1      -8.242  -6.882   9.169  0.00  0.00    +0.156 A 
ATOM     19  O   UNL     1      -6.994  -6.553   8.767  0.00  0.00    -0.435 OA
ENDBRANCH   3  11
BRANCH   1  22
ATOM     20  N   UNL     1      -4.280  -2.179   2.318  0.00  0.00    -0.268 N 
ATOM     21  C   UNL     1      -3.864  -2.464   3.570  0.00  0.00    +0.117 A 
ATOM     22  C   UNL     1      -4.883  -3.108   4.207  0.00  0.00    +0.021 A 
ATOM     23  C   UNL     1      -5.954  -3.213   3.299  0.00  0.00    +0.143 A 
ATOM     24  N   UNL     1      -5.590  -2.653   2.175  0.00  0.00    -0.179 NA
BRANCH  20  31
ATOM     25  C   UNL     1      -0.698   2.602   0.569  0.00  0.00    +0.109 C 
ATOM     26  C   UNL     1      -0.432   1.121   0.483  0.00  0.00    +0.212 C 
ATOM     27  O   UNL     1       0.708   0.708   0.493  0.00  0.00    -0.276 OA
ATOM     28  N   UNL     1      -1.462   0.256   0.394  0.00  0.00    -0.302 N 
ATOM     29  C   UNL     1      -2.848   0.742   0.374  0.00  0.00    +0.110 C 
ATOM     30  C   UNL     1      -3.638   0.024   1.472  0.00  0.00    +0.046 C 
ATOM     31  C   UNL     1      -3.499  -1.489   1.289  0.00  0.00    +0.110 C 
ATOM     32  C   UNL     1      -2.027  -1.887   1.414  0.00  0.00    +0.046 C 
ATOM     33  C   UNL     1      -1.218  -1.190   0.309  0.00  0.00    +0.110 C 
ENDBRANCH  20  31
ENDBRANCH   1  22
TORSDOF 3
