REMARK  Name = CHEMBL462914
REMARK  4 active torsions:
REMARK  status: ('A' for Active; 'I' for Inactive)
REMARK    1  A    between atoms: C_1  and  N_2
REMARK    2  A    between atoms: C_13  and  C_25
REMARK    3  A    between atoms: C_15  and  C_18
REMARK    4  A    between atoms: C_21  and  O_24
REMARK                            x       y       z     vdW  Elec       q    Type
REMARK                         _______ _______ _______ _____ _____    ______ ____
ROOT
ATOM      1  C   UNL     1       0.292   1.448   0.173  0.00  0.00    +0.105 C 
ATOM      2  N   UNL     1       0.160  -0.013   0.085  0.00  0.00    -0.302 NA
ATOM      3  C   UNL     1      -1.250  -0.418   0.154  0.00  0.00    +0.103 C 
ATOM      4  C   UNL     1      -1.360  -1.922  -0.122  0.00  0.00    +0.122 C 
ATOM      5  N   UNL     1      -0.463  -2.633   0.801  0.00  0.00    -0.312 N 
ATOM      6  C   UNL     1       0.938  -2.192   0.888  0.00  0.00    +0.122 C 
ATOM      7  C   UNL     1       0.957  -0.678   1.124  0.00  0.00    +0.103 C 
ATOM      8  C   UNL     1      -0.925  -3.692   1.569  0.00  0.00    +0.140 A 
ATOM      9  C   UNL     1      -2.194  -4.239   1.312  0.00  0.00    +0.155 A 
ATOM     10  N   UNL     1      -2.646  -5.239   2.028  0.00  0.00    -0.250 NA
ATOM     11  C   UNL     1      -1.895  -5.747   3.014  0.00  0.00    +0.090 A 
ATOM     12  C   UNL     1      -2.358  -6.820   3.794  0.00  0.00    +0.042 A 
ATOM     13  C   UNL     1      -1.582  -7.326   4.793  0.00  0.00    +0.058 A 
ATOM     14  C   UNL     1      -0.325  -6.799   5.062  0.00  0.00    +0.023 A 
ATOM     15  C   UNL     1       0.171  -5.742   4.318  0.00  0.00    +0.010 A 
ATOM     16  C   UNL     1      -0.616  -5.199   3.274  0.00  0.00    +0.099 A 
ATOM     17  N   UNL     1      -0.167  -4.182   2.532  0.00  0.00    -0.228 NA
ENDROOT
BRANCH  15  18
ATOM     18  C   UNL     1       1.511  -5.185   4.611  0.00  0.00    -0.016 A 
ATOM     19  C   UNL     1       2.432  -4.998   3.580  0.00  0.00    +0.012 A 
ATOM     20  C   UNL     1       3.679  -4.479   3.856  0.00  0.00    +0.046 A 
ATOM     21  C   UNL     1       4.019  -4.143   5.160  0.00  0.00    +0.117 A 
ATOM     22  C   UNL     1       3.106  -4.328   6.189  0.00  0.00    +0.046 A 
ATOM     23  C   UNL     1       1.855  -4.840   5.919  0.00  0.00    +0.012 A 
BRANCH  21  24
ATOM     24  O   UNL     1       5.249  -3.633   5.429  0.00  0.00    -0.507 OA
ATOM     25  H   UNL     1       5.295  -2.668   5.377  0.00  0.00    +0.292 HD
ENDBRANCH  21  24
ENDBRANCH  15  18
BRANCH  13  26
ATOM     26  C   UNL     1      -2.096  -8.476   5.620  0.00  0.00    +0.418 C 
ATOM     27  F   UNL     1      -3.372  -8.838   5.175  0.00  0.00    -0.166 F 
ATOM     28  F   UNL     1      -1.230  -9.567   5.491  0.00  0.00    -0.166 F 
ATOM     29  F   UNL     1      -2.163  -8.091   6.964  0.00  0.00    -0.166 F 
ENDBRANCH  13  26
TORSDOF 3
