REMARK  Name = CHEMBL438696
REMARK  13 active torsions:
REMARK  status: ('A' for Active; 'I' for Inactive)
REMARK    1  A    between atoms: C_1  and  C_2
REMARK    2  A    between atoms: C_3  and  O_33
REMARK    3  A    between atoms: C_7  and  O_11
REMARK    4  A    between atoms: O_11  and  C_12
REMARK    5  A    between atoms: C_15  and  N_19
REMARK    6  A    between atoms: C_23  and  C_25
REMARK    7  A    between atoms: C_25  and  C_26
REMARK    8  A    between atoms: O_33  and  C_34
REMARK    9  A    between atoms: C_34  and  C_35
REMARK   10  A    between atoms: C_35  and  C_36
REMARK   11  A    between atoms: C_36  and  N_37
REMARK   12  A    between atoms: N_37  and  C_38
REMARK   13  A    between atoms: N_37  and  C_39
REMARK                            x       y       z     vdW  Elec       q    Type
REMARK                         _______ _______ _______ _____ _____    ______ ____
ROOT
ATOM      1  C   UNL     1      -0.086   0.846   4.329  0.00  0.00    +0.166 A 
ATOM      2  C   UNL     1      -1.330   0.961   4.931  0.00  0.00    +0.051 A 
ATOM      3  C   UNL     1      -1.424   1.125   6.299  0.00  0.00    +0.027 A 
ATOM      4  C   UNL     1      -0.272   1.174   7.073  0.00  0.00    +0.038 A 
ATOM      5  C   UNL     1       0.974   1.059   6.472  0.00  0.00    +0.065 A 
ATOM      6  C   UNL     1       1.067   0.890   5.103  0.00  0.00    +0.167 A 
ATOM      7  F   UNL     1       2.279   0.772   4.517  0.00  0.00    -0.202 F 
ENDROOT
BRANCH   4   8
ATOM      8  N   UNL     1      -0.368   1.341   8.461  0.00  0.00    -0.269 N 
ATOM      9  C   UNL     1      -1.387   0.777   9.139  0.00  0.00    +0.310 C 
ATOM     10  O   UNL     1      -2.269   0.195   8.538  0.00  0.00    -0.252 OA
ATOM     11  N   UNL     1      -1.428   0.858  10.484  0.00  0.00    -0.240 N 
ATOM     12  C   UNL     1      -2.447   0.293  11.162  0.00  0.00    +0.225 C 
ATOM     13  O   UNL     1      -3.327  -0.286  10.562  0.00  0.00    -0.275 OA
ATOM     14  H   UNL     1       0.300   1.862   8.934  0.00  0.00    +0.156 HD
ATOM     15  H   UNL     1      -0.724   1.321  10.964  0.00  0.00    +0.159 HD
BRANCH  12  16
ATOM     16  C   UNL     1      -2.493   0.384  12.665  0.00  0.00    +0.131 C 
BRANCH  16  17
ATOM     17  C   UNL     1      -3.724  -0.322  13.174  0.00  0.00    -0.038 A 
ATOM     18  C   UNL     1      -4.909   0.376  13.321  0.00  0.00    +0.007 A 
ATOM     19  C   UNL     1      -6.038  -0.271  13.786  0.00  0.00    +0.038 A 
ATOM     20  C   UNL     1      -5.983  -1.617  14.105  0.00  0.00    +0.123 A 
ATOM     21  C   UNL     1      -4.796  -2.314  13.957  0.00  0.00    +0.038 A 
ATOM     22  C   UNL     1      -3.669  -1.667  13.487  0.00  0.00    +0.007 A 
ATOM     23  F   UNL     1      -7.087  -2.249  14.560  0.00  0.00    -0.205 F 
ENDBRANCH  16  17
ENDBRANCH  12  16
ENDBRANCH   4   8
BRANCH   1  24
ATOM     24  O   UNL     1       0.005   0.685   2.982  0.00  0.00    -0.433 OA
BRANCH  24  31
ATOM     25  C   UNL     1      -0.123   1.520   0.007  0.00  0.00    +0.050 C 
ATOM     26  C   UNL     1      -0.005   0.018  -0.002  0.00  0.00    +0.023 A 
ATOM     27  C   UNL     1       0.043  -0.806  -1.130  0.00  0.00    +0.144 A 
ATOM     28  C   UNL     1       0.151  -2.096  -0.702  0.00  0.00    +0.159 A 
ATOM     29  N   UNL     1       0.174  -2.110   0.651  0.00  0.00    -0.229 N 
ATOM     30  C   UNL     1       0.084  -0.807   1.105  0.00  0.00    +0.134 A 
ATOM     31  C   UNL     1       0.094  -0.575   2.497  0.00  0.00    +0.248 A 
ATOM     32  N   UNL     1       0.192  -1.603   3.321  0.00  0.00    -0.198 NA
ATOM     33  C   UNL     1       0.281  -2.853   2.872  0.00  0.00    +0.247 A 
ATOM     34  N   UNL     1       0.270  -3.138   1.599  0.00  0.00    -0.155 NA
BRANCH  27  35
ATOM     35  O   UNL     1      -0.011  -0.394  -2.426  0.00  0.00    -0.490 OA
BRANCH  35  36
ATOM     36  C   UNL     1       0.053  -1.406  -3.433  0.00  0.00    +0.227 C 
BRANCH  36  37
ATOM     37  C   UNL     1      -0.021  -0.756  -4.816  0.00  0.00    +0.022 C 
BRANCH  37  38
ATOM     38  C   UNL     1       0.048  -1.841  -5.893  0.00  0.00    -0.076 C 
BRANCH  38  39
ATOM     39  N   UNL     1      -0.023  -1.217  -7.221  0.00  0.00    +0.376 N 
ATOM     40  C   UNL     1       0.163  -2.244  -8.255  0.00  0.00    -0.097 C 
ATOM     41  C   UNL     1      -1.336  -0.580  -7.393  0.00  0.00    -0.097 C 
ATOM     42  H   UNL     1       0.702  -0.520  -7.304  0.00  0.00    -0.083 HD
ENDBRANCH  38  39
ENDBRANCH  37  38
ENDBRANCH  36  37
ENDBRANCH  35  36
ENDBRANCH  27  35
ENDBRANCH  24  31
ENDBRANCH   1  24
TORSDOF 10
