REMARK  Name = CHEMBL502531
REMARK  7 active torsions:
REMARK  status: ('A' for Active; 'I' for Inactive)
REMARK    1  A    between atoms: C_2  and  C_3
REMARK    2  A    between atoms: C_4  and  O_10
REMARK    3  A    between atoms: C_8  and  N_9
REMARK    4  A    between atoms: O_10  and  C_11
REMARK    5  A    between atoms: C_14  and  N_18
REMARK    6  A    between atoms: C_22  and  C_24
REMARK    7  A    between atoms: C_24  and  C_25
REMARK                            x       y       z     vdW  Elec       q    Type
REMARK                         _______ _______ _______ _____ _____    ______ ____
ROOT
ATOM      1  C   UNL     1      -3.477   2.317   0.111  0.00  0.00    +0.164 A 
ATOM      2  C   UNL     1      -3.319   3.694   0.059  0.00  0.00    +0.051 A 
ATOM      3  C   UNL     1      -4.428   4.517   0.054  0.00  0.00    +0.027 A 
ATOM      4  C   UNL     1      -5.702   3.967   0.100  0.00  0.00    +0.038 A 
ATOM      5  C   UNL     1      -5.861   2.589   0.151  0.00  0.00    +0.065 A 
ATOM      6  C   UNL     1      -4.751   1.765   0.151  0.00  0.00    +0.167 A 
ATOM      7  F   UNL     1      -4.905   0.423   0.196  0.00  0.00    -0.202 F 
ENDROOT
BRANCH   4   8
ATOM      8  N   UNL     1      -6.826   4.803   0.095  0.00  0.00    -0.269 N 
ATOM      9  C   UNL     1      -6.813   5.946  -0.619  0.00  0.00    +0.310 C 
ATOM     10  O   UNL     1      -5.803   6.287  -1.201  0.00  0.00    -0.252 OA
ATOM     11  N   UNL     1      -7.921   6.710  -0.688  0.00  0.00    -0.240 N 
ATOM     12  C   UNL     1      -7.909   7.853  -1.402  0.00  0.00    +0.225 C 
ATOM     13  O   UNL     1      -6.900   8.194  -1.982  0.00  0.00    -0.275 OA
ATOM     14  H   UNL     1      -7.614   4.559   0.606  0.00  0.00    +0.156 HD
ATOM     15  H   UNL     1      -8.728   6.438  -0.223  0.00  0.00    +0.159 HD
BRANCH  12  16
ATOM     16  C   UNL     1      -9.147   8.707  -1.478  0.00  0.00    +0.131 C 
BRANCH  16  17
ATOM     17  C   UNL     1      -8.870   9.918  -2.331  0.00  0.00    -0.038 A 
ATOM     18  C   UNL     1      -8.382  11.075  -1.752  0.00  0.00    +0.007 A 
ATOM     19  C   UNL     1      -8.127  12.186  -2.533  0.00  0.00    +0.038 A 
ATOM     20  C   UNL     1      -8.361  12.141  -3.897  0.00  0.00    +0.123 A 
ATOM     21  C   UNL     1      -8.850  10.982  -4.476  0.00  0.00    +0.038 A 
ATOM     22  C   UNL     1      -9.099   9.871  -3.694  0.00  0.00    +0.007 A 
ATOM     23  F   UNL     1      -8.113  13.226  -4.662  0.00  0.00    -0.205 F 
ENDBRANCH  16  17
ENDBRANCH  12  16
ENDBRANCH   4   8
BRANCH   1  24
ATOM     24  O   UNL     1      -2.384   1.507   0.116  0.00  0.00    -0.452 OA
BRANCH  24  26
ATOM     25  C   UNL     1      -0.755   0.281  -1.151  0.00  0.00    +0.106 A 
ATOM     26  C   UNL     1      -1.936   1.034  -1.074  0.00  0.00    +0.149 A 
ATOM     27  C   UNL     1      -2.637   1.283  -2.251  0.00  0.00    +0.067 A 
ATOM     28  C   UNL     1      -2.155   0.787  -3.445  0.00  0.00    +0.116 A 
ATOM     29  N   UNL     1      -1.040   0.081  -3.492  0.00  0.00    -0.239 NA
ATOM     30  C   UNL     1      -0.330  -0.181  -2.405  0.00  0.00    +0.135 A 
BRANCH  30  31
ATOM     31  N   UNL     1       0.838  -0.922  -2.507  0.00  0.00    -0.342 N 
ATOM     32  H   UNL     1       1.358  -1.120  -1.712  0.00  0.00    +0.144 HD
ATOM     33  H   UNL     1       1.135  -1.244  -3.373  0.00  0.00    +0.144 HD
ENDBRANCH  30  31
BRANCH  25  35
ATOM     34  C   UNL     1       0.630  -0.240   0.994  0.00  0.00    +0.009 C 
ATOM     35  C   UNL     1       0.006  -0.005   0.027  0.00  0.00    -0.063 C 
ENDBRANCH  25  35
ENDBRANCH  24  26
ENDBRANCH   1  24
TORSDOF 7
