REMARK  Name = CHEMBL562063
REMARK  3 active torsions:
REMARK  status: ('A' for Active; 'I' for Inactive)
REMARK    1  A    between atoms: C_5  and  S_7
REMARK    2  A    between atoms: S_7  and  N_10
REMARK    3  A    between atoms: C_16  and  N_19
REMARK                            x       y       z     vdW  Elec       q    Type
REMARK                         _______ _______ _______ _____ _____    ______ ____
ROOT
ATOM      1  S   UNL     1       1.133  -2.464  -0.021  0.00  0.00    +0.086 S 
ATOM      2  O   UNL     1       2.031  -2.890   0.994  0.00  0.00    -0.148 OA
ATOM      3  O   UNL     1      -0.235  -2.849  -0.038  0.00  0.00    -0.148 OA
ENDROOT
BRANCH   1   8
ATOM      4  C   UNL     1      -0.017   1.396   0.010  0.00  0.00    +0.004 A 
ATOM      5  C   UNL     1       1.122   2.126   0.003  0.00  0.00    +0.033 A 
ATOM      6  C   UNL     1       2.378   1.466  -0.013  0.00  0.00    +0.136 A 
ATOM      7  C   UNL     1       2.398  -0.009  -0.021  0.00  0.00    +0.161 A 
ATOM      8  C   UNL     1       1.161  -0.703  -0.013  0.00  0.00    +0.142 A 
ATOM      9  C   UNL     1       0.002  -0.004   0.002  0.00  0.00    +0.031 A 
ATOM     10  N   UNL     1       3.652  -0.400  -0.035  0.00  0.00    -0.047 NA
ATOM     11  O   UNL     1       4.470   0.757  -0.037  0.00  0.00    -0.242 OA
ATOM     12  N   UNL     1       3.620   1.891  -0.022  0.00  0.00    -0.049 NA
ENDBRANCH   1   8
BRANCH   1  13
ATOM     13  N   UNL     1       1.780  -2.957  -1.464  0.00  0.00    -0.217 N 
ATOM     14  C   UNL     1       2.942  -3.665  -1.604  0.00  0.00    +0.114 A 
ATOM     15  C   UNL     1       3.180  -3.903  -2.904  0.00  0.00    +0.049 A 
ATOM     16  C   UNL     1       2.080  -3.299  -3.660  0.00  0.00    +0.091 A 
ATOM     17  C   UNL     1       1.226  -2.722  -2.702  0.00  0.00    +0.092 A 
ATOM     18  C   UNL     1       0.074  -2.070  -3.130  0.00  0.00    +0.054 A 
ATOM     19  C   UNL     1      -0.185  -2.019  -4.493  0.00  0.00    +0.045 A 
ATOM     20  C   UNL     1       0.706  -2.616  -5.383  0.00  0.00    +0.134 A 
ATOM     21  N   UNL     1       1.792  -3.220  -4.956  0.00  0.00    -0.252 NA
BRANCH  19  22
ATOM     22  N   UNL     1      -1.331  -1.374  -4.970  0.00  0.00    -0.357 N 
ATOM     23  H   UNL     1      -1.949  -0.960  -4.347  0.00  0.00    +0.142 HD
ATOM     24  H   UNL     1      -1.508  -1.341  -5.923  0.00  0.00    +0.142 HD
ENDBRANCH  19  22
ENDBRANCH   1  13
TORSDOF 3
