REMARK  Name = CHEMBL460772
REMARK  9 active torsions:
REMARK  status: ('A' for Active; 'I' for Inactive)
REMARK    1  A    between atoms: C_1  and  O_2
REMARK    2  A    between atoms: O_2  and  C_3
REMARK    3  A    between atoms: C_6  and  O_15
REMARK    4  A    between atoms: C_12  and  O_13
REMARK    5  A    between atoms: O_13  and  C_14
REMARK    6  A    between atoms: O_15  and  C_16
REMARK    7  A    between atoms: C_19  and  C_23
REMARK    8  A    between atoms: C_26  and  C_29
REMARK    9  A    between atoms: C_29  and  C_30
REMARK                            x       y       z     vdW  Elec       q    Type
REMARK                         _______ _______ _______ _____ _____    ______ ____
ROOT
ATOM      1  C   UNL     1       2.949   2.219  -5.224  0.00  0.00    +0.164 A 
ATOM      2  C   UNL     1       3.457   1.422  -6.241  0.00  0.00    +0.050 A 
ATOM      3  C   UNL     1       4.066   2.001  -7.334  0.00  0.00    +0.014 A 
ATOM      4  C   UNL     1       4.172   3.389  -7.419  0.00  0.00    +0.005 A 
ATOM      5  C   UNL     1       3.661   4.188  -6.398  0.00  0.00    +0.052 A 
ATOM      6  C   UNL     1       3.047   3.604  -5.308  0.00  0.00    +0.166 A 
ATOM      7  F   UNL     1       2.547   4.377  -4.319  0.00  0.00    -0.202 F 
ENDROOT
BRANCH   4   8
ATOM      8  C   UNL     1       4.827   4.013  -8.594  0.00  0.00    +0.093 A 
ATOM      9  C   UNL     1       4.939   5.404  -8.679  0.00  0.00    +0.032 A 
ATOM     10  C   UNL     1       5.561   5.936  -9.797  0.00  0.00    +0.027 A 
ATOM     11  C   UNL     1       6.033   5.058 -10.763  0.00  0.00    +0.068 A 
ATOM     12  N   UNL     1       5.884   3.757 -10.602  0.00  0.00    -0.153 NA
ATOM     13  N   UNL     1       5.315   3.254  -9.568  0.00  0.00    -0.149 NA
BRANCH  11  14
ATOM     14  C   UNL     1       6.715   5.591 -11.996  0.00  0.00    +0.092 C 
BRANCH  14  15
ATOM     15  C   UNL     1       8.076   4.958 -12.130  0.00  0.00    -0.042 A 
ATOM     16  C   UNL     1       9.176   5.552 -11.540  0.00  0.00    +0.004 A 
ATOM     17  C   UNL     1      10.425   4.971 -11.663  0.00  0.00    +0.000 A 
ATOM     18  C   UNL     1      10.573   3.796 -12.376  0.00  0.00    +0.000 A 
ATOM     19  C   UNL     1       9.473   3.202 -12.966  0.00  0.00    +0.000 A 
ATOM     20  C   UNL     1       8.224   3.781 -12.839  0.00  0.00    +0.004 A 
ENDBRANCH  14  15
ENDBRANCH  11  14
ENDBRANCH   4   8
BRANCH   1  21
ATOM     21  O   UNL     1       2.349   1.645  -4.148  0.00  0.00    -0.452 OA
BRANCH  21  25
ATOM     22  C   UNL     1       0.265   0.201  -0.795  0.00  0.00    +0.162 A 
ATOM     23  C   UNL     1       0.974   0.667  -1.865  0.00  0.00    +0.063 A 
ATOM     24  C   UNL     1       0.300   1.020  -3.043  0.00  0.00    +0.046 A 
ATOM     25  C   UNL     1       1.001   1.505  -4.171  0.00  0.00    +0.139 A 
ATOM     26  C   UNL     1       0.268   1.833  -5.298  0.00  0.00    +0.066 A 
ATOM     27  C   UNL     1      -1.112   1.680  -5.291  0.00  0.00    +0.115 A 
ATOM     28  N   UNL     1      -1.753   1.229  -4.239  0.00  0.00    -0.255 NA
ATOM     29  C   UNL     1      -1.108   0.892  -3.115  0.00  0.00    +0.078 A 
ATOM     30  C   UNL     1      -1.810   0.410  -1.998  0.00  0.00    +0.077 A 
ATOM     31  C   UNL     1      -1.130   0.068  -0.865  0.00  0.00    +0.164 A 
BRANCH  22  33
ATOM     32  C   UNL     1       2.337   0.017   0.356  0.00  0.00    +0.277 C 
ATOM     33  O   UNL     1       0.917  -0.142   0.347  0.00  0.00    -0.491 OA
ENDBRANCH  22  33
BRANCH  31  34
ATOM     34  O   UNL     1      -1.813  -0.403   0.211  0.00  0.00    -0.491 OA
ATOM     35  C   UNL     1      -3.231  -0.517   0.080  0.00  0.00    +0.277 C 
ENDBRANCH  31  34
ENDBRANCH  21  25
ENDBRANCH   1  21
TORSDOF 7
