REMARK  Name = CHEMBL561256
REMARK  2 active torsions:
REMARK  status: ('A' for Active; 'I' for Inactive)
REMARK    1  A    between atoms: C_4  and  C_7
REMARK    2  A    between atoms: C_7  and  N_8
REMARK                            x       y       z     vdW  Elec       q    Type
REMARK                         _______ _______ _______ _____ _____    ______ ____
ROOT
ATOM      1  N   UNL     1       4.152  -0.952   1.338  0.00  0.00    -0.341 N 
ATOM      2  C   UNL     1       5.007  -0.153   2.043  0.00  0.00    +0.089 A 
ATOM      3  C   UNL     1       5.202  -0.662   3.271  0.00  0.00    +0.047 A 
ATOM      4  C   UNL     1       4.407  -1.888   3.360  0.00  0.00    +0.089 A 
ATOM      5  C   UNL     1       3.762  -2.019   2.115  0.00  0.00    +0.068 A 
ATOM      6  C   UNL     1       2.920  -3.106   1.904  0.00  0.00    +0.029 A 
ATOM      7  C   UNL     1       2.750  -4.014   2.934  0.00  0.00    +0.022 A 
ATOM      8  C   UNL     1       3.414  -3.821   4.135  0.00  0.00    +0.111 A 
ATOM      9  N   UNL     1       4.213  -2.792   4.317  0.00  0.00    -0.253 NA
ENDROOT
BRANCH   1  10
ATOM     10  C   UNL     1       3.711  -0.707  -0.038  0.00  0.00    +0.157 C 
BRANCH  10  14
ATOM     11  C   UNL     1      -0.017   1.378   0.010  0.00  0.00    +0.000 A 
ATOM     12  C   UNL     1       1.171   2.086   0.002  0.00  0.00    +0.000 A 
ATOM     13  C   UNL     1       2.377   1.411  -0.013  0.00  0.00    +0.005 A 
ATOM     14  C   UNL     1       2.396   0.029  -0.020  0.00  0.00    -0.028 A 
ATOM     15  C   UNL     1       1.208  -0.679  -0.012  0.00  0.00    +0.005 A 
ATOM     16  C   UNL     1       0.002  -0.004   0.002  0.00  0.00    +0.000 A 
ENDBRANCH  10  14
ENDBRANCH   1  10
TORSDOF 2
