REMARK  Name = CHEMBL508403
REMARK  5 active torsions:
REMARK  status: ('A' for Active; 'I' for Inactive)
REMARK    1  A    between atoms: C_4  and  C_7
REMARK    2  A    between atoms: C_11  and  C_13
REMARK    3  A    between atoms: N_15  and  C_16
REMARK    4  A    between atoms: C_19  and  O_23
REMARK    5  A    between atoms: O_23  and  C_24
REMARK                            x       y       z     vdW  Elec       q    Type
REMARK                         _______ _______ _______ _____ _____    ______ ____
ROOT
ATOM      1  C   UNL     1       8.378   2.259  -0.137  0.00  0.00    +0.037 A 
ATOM      2  C   UNL     1       9.579   1.586  -0.320  0.00  0.00    +0.027 A 
ATOM      3  C   UNL     1      10.761   2.295  -0.412  0.00  0.00    +0.051 A 
ATOM      4  C   UNL     1      10.749   3.679  -0.323  0.00  0.00    +0.164 A 
ATOM      5  C   UNL     1       9.548   4.353  -0.140  0.00  0.00    +0.167 A 
ATOM      6  C   UNL     1       8.364   3.644  -0.052  0.00  0.00    +0.065 A 
ATOM      7  F   UNL     1       9.537   5.701  -0.051  0.00  0.00    -0.202 F 
ENDROOT
BRANCH   1  10
ATOM      8  C   UNL     1       6.046   2.050  -0.565  0.00  0.00    +0.267 C 
ATOM      9  O   UNL     1       6.048   3.163  -1.051  0.00  0.00    -0.268 OA
ATOM     10  N   UNL     1       7.180   1.540  -0.044  0.00  0.00    -0.280 N 
ATOM     11  H   UNL     1       7.167   0.675   0.394  0.00  0.00    +0.155 HD
BRANCH   8  16
ATOM     12  C   UNL     1       3.711  -0.707   0.027  0.00  0.00    +0.072 A 
ATOM     13  C   UNL     1       2.506  -0.232  -0.497  0.00  0.00    +0.028 A 
ATOM     14  C   UNL     1       2.466   1.032  -1.059  0.00  0.00    +0.004 A 
ATOM     15  C   UNL     1       3.630   1.786  -1.083  0.00  0.00    +0.033 A 
ATOM     16  C   UNL     1       4.798   1.252  -0.544  0.00  0.00    +0.126 A 
ATOM     17  N   UNL     1       4.803   0.039  -0.007  0.00  0.00    -0.242 NA
BRANCH  12  21
ATOM     18  C   UNL     1       3.864  -4.585   1.764  0.00  0.00    +0.000 A 
ATOM     19  C   UNL     1       5.004  -3.801   1.726  0.00  0.00    +0.001 A 
ATOM     20  C   UNL     1       4.960  -2.542   1.163  0.00  0.00    +0.010 A 
ATOM     21  C   UNL     1       3.764  -2.060   0.633  0.00  0.00    +0.000 A 
ATOM     22  C   UNL     1       2.620  -2.854   0.674  0.00  0.00    +0.010 A 
ATOM     23  C   UNL     1       2.675  -4.112   1.239  0.00  0.00    +0.001 A 
ENDBRANCH  12  21
ENDBRANCH   8  16
ENDBRANCH   1  10
BRANCH   4  24
ATOM     24  O   UNL     1      11.913   4.376  -0.413  0.00  0.00    -0.452 OA
BRANCH  24  25
ATOM     25  C   UNL     1      12.564   4.682   0.738  0.00  0.00    +0.141 A 
ATOM     26  C   UNL     1      12.006   4.388   1.976  0.00  0.00    +0.066 A 
ATOM     27  C   UNL     1      12.700   4.715   3.127  0.00  0.00    +0.117 A 
ATOM     28  N   UNL     1      13.879   5.300   3.080  0.00  0.00    -0.237 NA
ATOM     29  C   UNL     1      14.463   5.606   1.928  0.00  0.00    +0.142 A 
ATOM     30  C   UNL     1      13.822   5.300   0.715  0.00  0.00    +0.061 A 
ATOM     31  C   UNL     1      14.719   5.753  -0.349  0.00  0.00    +0.032 A 
ATOM     32  C   UNL     1      15.800   6.277   0.250  0.00  0.00    +0.085 A 
ATOM     33  N   UNL     1      15.659   6.204   1.610  0.00  0.00    -0.346 N 
ATOM     34  H   UNL     1      16.312   6.518   2.255  0.00  0.00    +0.167 HD
ENDBRANCH  24  25
ENDBRANCH   4  24
TORSDOF 5
