REMARK  Name = CHEMBL566623
REMARK  9 active torsions:
REMARK  status: ('A' for Active; 'I' for Inactive)
REMARK    1  A    between atoms: C_1  and  N_2
REMARK    2  A    between atoms: C_6  and  C_7
REMARK    3  A    between atoms: C_7  and  C_9
REMARK    4  A    between atoms: C_14  and  O_18
REMARK    5  A    between atoms: O_18  and  C_19
REMARK    6  A    between atoms: C_22  and  N_26
REMARK    7  A    between atoms: C_27  and  C_29
REMARK    8  A    between atoms: C_29  and  C_30
REMARK    9  A    between atoms: N_32  and  C_33
REMARK                            x       y       z     vdW  Elec       q    Type
REMARK                         _______ _______ _______ _____ _____    ______ ____
ROOT
ATOM      1  C   UNL     1       0.258  -6.995   6.153  0.00  0.00    +0.164 A 
ATOM      2  C   UNL     1       0.155  -6.755   7.515  0.00  0.00    +0.051 A 
ATOM      3  C   UNL     1       0.145  -7.811   8.405  0.00  0.00    +0.027 A 
ATOM      4  C   UNL     1       0.239  -9.115   7.937  0.00  0.00    +0.036 A 
ATOM      5  C   UNL     1       0.342  -9.357   6.574  0.00  0.00    +0.065 A 
ATOM      6  C   UNL     1       0.347  -8.300   5.683  0.00  0.00    +0.167 A 
ATOM      7  F   UNL     1       0.442  -8.535   4.356  0.00  0.00    -0.202 F 
ENDROOT
BRANCH   4   8
ATOM      8  N   UNL     1       0.230 -10.185   8.840  0.00  0.00    -0.285 N 
ATOM      9  C   UNL     1      -0.203 -11.398   8.443  0.00  0.00    +0.226 C 
ATOM     10  O   UNL     1      -0.687 -11.538   7.340  0.00  0.00    -0.275 OA
ATOM     11  H   UNL     1       0.536 -10.054   9.751  0.00  0.00    +0.155 HD
BRANCH   9  12
ATOM     12  C   UNL     1      -0.086 -12.581   9.370  0.00  0.00    +0.192 C 
BRANCH  12  13
ATOM     13  C   UNL     1      -0.638 -13.808   8.691  0.00  0.00    +0.226 C 
ATOM     14  O   UNL     1      -1.083 -13.730   7.566  0.00  0.00    -0.275 OA
ATOM     15  N   UNL     1      -0.638 -14.992   9.335  0.00  0.00    -0.285 N 
ATOM     16  H   UNL     1      -0.356 -15.040  10.262  0.00  0.00    +0.155 HD
BRANCH  15  17
ATOM     17  C   UNL     1      -1.044 -16.152   8.666  0.00  0.00    +0.033 A 
ATOM     18  C   UNL     1      -1.730 -17.146   9.352  0.00  0.00    +0.023 A 
ATOM     19  C   UNL     1      -2.130 -18.290   8.689  0.00  0.00    +0.002 A 
ATOM     20  C   UNL     1      -1.847 -18.446   7.344  0.00  0.00    +0.000 A 
ATOM     21  C   UNL     1      -1.164 -17.458   6.659  0.00  0.00    +0.002 A 
ATOM     22  C   UNL     1      -0.767 -16.309   7.315  0.00  0.00    +0.023 A 
ENDBRANCH  15  17
ENDBRANCH  12  13
ENDBRANCH   9  12
ENDBRANCH   4   8
BRANCH   1  23
ATOM     23  O   UNL     1       0.267  -5.955   5.277  0.00  0.00    -0.452 OA
BRANCH  23  29
ATOM     24  C   UNL     1      -0.941  -2.234   2.387  0.00  0.00    +0.065 A 
ATOM     25  C   UNL     1      -2.146  -2.834   2.600  0.00  0.00    +0.048 A 
ATOM     26  C   UNL     1      -2.225  -3.981   3.409  0.00  0.00    +0.082 A 
ATOM     27  C   UNL     1      -0.998  -4.424   3.950  0.00  0.00    +0.080 A 
ATOM     28  S   UNL     1       0.183  -3.260   3.319  0.00  0.00    -0.080 S 
ATOM     29  C   UNL     1      -0.920  -5.542   4.766  0.00  0.00    +0.146 A 
ATOM     30  C   UNL     1      -2.099  -6.228   5.045  0.00  0.00    +0.067 A 
ATOM     31  C   UNL     1      -3.282  -5.758   4.493  0.00  0.00    +0.115 A 
ATOM     32  N   UNL     1      -3.326  -4.701   3.726  0.00  0.00    -0.254 NA
BRANCH  24  33
ATOM     33  C   UNL     1      -0.641  -1.040   1.583  0.00  0.00    +0.235 C 
ATOM     34  O   UNL     1      -1.538  -0.454   1.006  0.00  0.00    -0.283 OA
BRANCH  33  40
ATOM     35  C   UNL     1       0.310   1.435  -0.025  0.00  0.00    +0.150 C 
ATOM     36  N   UNL     1       1.158   0.538   0.765  0.00  0.00    -0.331 N 
ATOM     37  C   UNL     1       2.503   0.639   0.936  0.00  0.00    +0.107 A 
ATOM     38  C   UNL     1       2.881  -0.389   1.736  0.00  0.00    +0.131 A 
ATOM     39  N   UNL     1       1.800  -1.098   2.048  0.00  0.00    -0.233 NA
ATOM     40  C   UNL     1       0.745  -0.554   1.477  0.00  0.00    +0.182 A 
ENDBRANCH  33  40
ENDBRANCH  24  33
ENDBRANCH  23  29
ENDBRANCH   1  23
TORSDOF 8
