REMARK  Name = CHEMBL453850
REMARK  6 active torsions:
REMARK  status: ('A' for Active; 'I' for Inactive)
REMARK    1  A    between atoms: C_3  and  C_16
REMARK    2  A    between atoms: N_6  and  C_8
REMARK    3  A    between atoms: C_8  and  C_9
REMARK    4  A    between atoms: N_18  and  C_19
REMARK    5  A    between atoms: C_22  and  O_26
REMARK    6  A    between atoms: O_26  and  C_27
REMARK                            x       y       z     vdW  Elec       q    Type
REMARK                         _______ _______ _______ _____ _____    ______ ____
ROOT
ATOM      1  C   UNL     1       3.800   1.921  -0.581  0.00  0.00    +0.253 C 
ATOM      2  O   UNL     1       3.945   2.962  -1.194  0.00  0.00    -0.270 OA
ATOM      3  N   UNL     1       4.844   1.371   0.069  0.00  0.00    -0.281 N 
ATOM      4  H   UNL     1       4.757   0.492   0.471  0.00  0.00    +0.155 HD
ENDROOT
BRANCH   1   7
ATOM      5  C   UNL     1       0.139   1.227  -1.063  0.00  0.00    +0.019 A 
ATOM      6  C   UNL     1       1.369   1.881  -1.112  0.00  0.00    +0.020 A 
ATOM      7  C   UNL     1       2.485   1.264  -0.549  0.00  0.00    +0.101 A 
ATOM      8  C   UNL     1       2.329  -0.010   0.056  0.00  0.00    +0.264 A 
ATOM      9  O   UNL     1       3.288  -0.571   0.557  0.00  0.00    -0.267 OA
ATOM     10  N   UNL     1       1.117  -0.598   0.076  0.00  0.00    -0.310 N 
ATOM     11  C   UNL     1       0.038   0.008  -0.473  0.00  0.00    +0.089 A 
BRANCH  10  12
ATOM     12  C   UNL     1       0.965  -1.913   0.703  0.00  0.00    +0.160 C 
BRANCH  12  13
ATOM     13  C   UNL     1       0.630  -1.739   2.162  0.00  0.00    -0.027 A 
ATOM     14  C   UNL     1       1.644  -1.662   3.098  0.00  0.00    +0.008 A 
ATOM     15  C   UNL     1       1.338  -1.502   4.436  0.00  0.00    +0.038 A 
ATOM     16  C   UNL     1       0.015  -1.420   4.839  0.00  0.00    +0.123 A 
ATOM     17  C   UNL     1      -0.999  -1.498   3.900  0.00  0.00    +0.038 A 
ATOM     18  C   UNL     1      -0.691  -1.652   2.562  0.00  0.00    +0.008 A 
ATOM     19  F   UNL     1      -0.285  -1.264   6.147  0.00  0.00    -0.205 F 
ENDBRANCH  12  13
ENDBRANCH  10  12
ENDBRANCH   1   7
BRANCH   3  20
ATOM     20  C   UNL     1       6.055   2.068   0.165  0.00  0.00    +0.037 A 
ATOM     21  C   UNL     1       6.053   3.454   0.247  0.00  0.00    +0.027 A 
ATOM     22  C   UNL     1       7.247   4.142   0.342  0.00  0.00    +0.051 A 
ATOM     23  C   UNL     1       8.449   3.449   0.355  0.00  0.00    +0.164 A 
ATOM     24  C   UNL     1       8.452   2.062   0.273  0.00  0.00    +0.167 A 
ATOM     25  C   UNL     1       7.256   1.373   0.185  0.00  0.00    +0.065 A 
ATOM     26  F   UNL     1       9.622   1.387   0.286  0.00  0.00    -0.202 F 
BRANCH  23  27
ATOM     27  O   UNL     1       9.624   4.127   0.449  0.00  0.00    -0.452 OA
BRANCH  27  28
ATOM     28  C   UNL     1      10.317   4.360  -0.694  0.00  0.00    +0.141 A 
ATOM     29  C   UNL     1       9.790   4.020  -1.934  0.00  0.00    +0.066 A 
ATOM     30  C   UNL     1      10.528   4.274  -3.077  0.00  0.00    +0.117 A 
ATOM     31  N   UNL     1      11.720   4.831  -3.020  0.00  0.00    -0.237 NA
ATOM     32  C   UNL     1      12.276   5.178  -1.865  0.00  0.00    +0.142 A 
ATOM     33  C   UNL     1      11.585   4.957  -0.661  0.00  0.00    +0.061 A 
ATOM     34  C   UNL     1      12.455   5.451   0.407  0.00  0.00    +0.032 A 
ATOM     35  C   UNL     1      13.565   5.924  -0.181  0.00  0.00    +0.085 A 
ATOM     36  N   UNL     1      13.477   5.760  -1.539  0.00  0.00    -0.346 N 
ATOM     37  H   UNL     1      14.158   6.027  -2.177  0.00  0.00    +0.167 HD
ENDBRANCH  27  28
ENDBRANCH  23  27
ENDBRANCH   3  20
TORSDOF 6
