REMARK  Name = CHEMBL508776
REMARK  6 active torsions:
REMARK  status: ('A' for Active; 'I' for Inactive)
REMARK    1  A    between atoms: C_1  and  N_2
REMARK    2  A    between atoms: C_5  and  C_8
REMARK    3  A    between atoms: C_13  and  O_17
REMARK    4  A    between atoms: O_17  and  C_18
REMARK    5  A    between atoms: C_21  and  N_25
REMARK    6  A    between atoms: N_31  and  C_34
REMARK                            x       y       z     vdW  Elec       q    Type
REMARK                         _______ _______ _______ _____ _____    ______ ____
ROOT
ATOM      1  C   UNL     1      -0.116 -10.083  -0.848  0.00  0.00    +0.164 A 
ATOM      2  C   UNL     1       0.031 -10.777   0.344  0.00  0.00    +0.051 A 
ATOM      3  C   UNL     1       0.035 -12.158   0.344  0.00  0.00    +0.027 A 
ATOM      4  C   UNL     1      -0.106 -12.853  -0.849  0.00  0.00    +0.038 A 
ATOM      5  C   UNL     1      -0.253 -12.160  -2.043  0.00  0.00    +0.065 A 
ATOM      6  C   UNL     1      -0.264 -10.777  -2.042  0.00  0.00    +0.167 A 
ATOM      7  F   UNL     1      -0.412 -10.102  -3.203  0.00  0.00    -0.202 F 
ENDROOT
BRANCH   4   8
ATOM      8  N   UNL     1      -0.101 -14.254  -0.848  0.00  0.00    -0.269 N 
ATOM      9  C   UNL     1       0.292 -14.927  -1.948  0.00  0.00    +0.314 C 
ATOM     10  O   UNL     1       0.506 -14.327  -2.983  0.00  0.00    -0.252 OA
ATOM     11  N   UNL     1       0.449 -16.265  -1.900  0.00  0.00    -0.208 N 
ATOM     12  C   UNL     1       0.111 -17.121  -0.753  0.00  0.00    +0.139 C 
ATOM     13  C   UNL     1       0.483 -18.539  -1.228  0.00  0.00    +0.135 C 
ATOM     14  N   UNL     1       0.991 -18.331  -2.593  0.00  0.00    -0.254 N 
ATOM     15  C   UNL     1       0.931 -17.026  -2.891  0.00  0.00    +0.317 C 
ATOM     16  O   UNL     1       1.285 -16.574  -3.962  0.00  0.00    -0.252 OA
ATOM     17  H   UNL     1      -0.380 -14.740  -0.057  0.00  0.00    +0.156 HD
BRANCH  14  18
ATOM     18  C   UNL     1       1.458 -19.337  -3.446  0.00  0.00    +0.038 A 
ATOM     19  C   UNL     1       2.099 -19.001  -4.632  0.00  0.00    +0.023 A 
ATOM     20  C   UNL     1       2.559 -19.996  -5.472  0.00  0.00    +0.002 A 
ATOM     21  C   UNL     1       2.381 -21.325  -5.134  0.00  0.00    +0.000 A 
ATOM     22  C   UNL     1       1.743 -21.663  -3.954  0.00  0.00    +0.002 A 
ATOM     23  C   UNL     1       1.287 -20.672  -3.107  0.00  0.00    +0.023 A 
ENDBRANCH  14  18
ENDBRANCH   4   8
BRANCH   1  24
ATOM     24  O   UNL     1      -0.121  -8.723  -0.847  0.00  0.00    -0.452 OA
BRANCH  24  30
ATOM     25  C   UNL     1      -1.390  -4.032  -0.731  0.00  0.00    +0.018 A 
ATOM     26  C   UNL     1      -2.567  -4.638  -1.044  0.00  0.00    +0.044 A 
ATOM     27  C   UNL     1      -2.623  -6.037  -1.175  0.00  0.00    +0.082 A 
ATOM     28  C   UNL     1      -1.402  -6.713  -0.961  0.00  0.00    +0.080 A 
ATOM     29  S   UNL     1      -0.258  -5.405  -0.604  0.00  0.00    -0.083 S 
ATOM     30  C   UNL     1      -1.303  -8.090  -1.056  0.00  0.00    +0.146 A 
ATOM     31  C   UNL     1      -2.456  -8.806  -1.372  0.00  0.00    +0.067 A 
ATOM     32  C   UNL     1      -3.633  -8.105  -1.574  0.00  0.00    +0.115 A 
ATOM     33  N   UNL     1      -3.697  -6.801  -1.479  0.00  0.00    -0.254 NA
BRANCH  25  38
ATOM     34  C   UNL     1      -0.188   1.440   0.154  0.00  0.00    -0.096 C 
ATOM     35  N   UNL     1      -0.277  -0.021   0.030  0.00  0.00    +0.380 N 
ATOM     36  C   UNL     1      -0.367  -0.389  -1.392  0.00  0.00    -0.074 C 
ATOM     37  C   UNL     1      -0.195  -1.905  -1.516  0.00  0.00    +0.017 C 
ATOM     38  C   UNL     1      -1.116  -2.597  -0.549  0.00  0.00    -0.041 C 
ATOM     39  C   UNL     1      -1.688  -1.963   0.457  0.00  0.00    -0.041 C 
ATOM     40  C   UNL     1      -1.478  -0.500   0.724  0.00  0.00    -0.051 C 
ATOM     41  H   UNL     1       0.542  -0.445   0.439  0.00  0.00    -0.082 HD
ENDBRANCH  25  38
ENDBRANCH  24  30
ENDBRANCH   1  24
TORSDOF 5
