REMARK  Name = CHEMBL566685
REMARK  7 active torsions:
REMARK  status: ('A' for Active; 'I' for Inactive)
REMARK    1  A    between atoms: C_1  and  C_2
REMARK    2  A    between atoms: C_4  and  C_7
REMARK    3  A    between atoms: C_13  and  C_16
REMARK    4  A    between atoms: C_16  and  N_17
REMARK    5  A    between atoms: N_17  and  C_18
REMARK    6  A    between atoms: C_26  and  O_28
REMARK    7  A    between atoms: O_28  and  C_29
REMARK                            x       y       z     vdW  Elec       q    Type
REMARK                         _______ _______ _______ _____ _____    ______ ____
ROOT
ATOM      1  C   UNL     1       0.032  -3.085  -2.158  0.00  0.00    +0.100 A 
ATOM      2  C   UNL     1       0.047  -4.455  -1.814  0.00  0.00    +0.034 A 
ATOM      3  C   UNL     1       0.054  -5.402  -2.788  0.00  0.00    +0.052 A 
ATOM      4  C   UNL     1       0.047  -4.999  -4.137  0.00  0.00    +0.178 A 
ATOM      5  N   UNL     1       0.050  -5.653  -5.287  0.00  0.00    -0.128 NA
ATOM      6  N   UNL     1       0.039  -4.807  -6.258  0.00  0.00    -0.131 NA
ATOM      7  C   UNL     1       0.028  -3.583  -5.791  0.00  0.00    +0.172 A 
ATOM      8  N   UNL     1       0.032  -3.659  -4.442  0.00  0.00    -0.195 N 
ATOM      9  N   UNL     1       0.020  -2.708  -3.419  0.00  0.00    -0.163 NA
ENDROOT
BRANCH   1  13
ATOM     10  C   UNL     1      -0.018   1.503   0.010  0.00  0.00    +0.066 C 
ATOM     11  C   UNL     1       0.002  -0.004   0.002  0.00  0.00    +0.048 A 
ATOM     12  C   UNL     1       0.005  -0.680  -1.193  0.00  0.00    +0.042 A 
ATOM     13  C   UNL     1       0.024  -2.063  -1.090  0.00  0.00    +0.059 A 
ATOM     14  S   UNL     1       0.036  -2.275   0.681  0.00  0.00    +0.013 S 
ATOM     15  N   UNL     1       0.022  -0.661   1.134  0.00  0.00    -0.215 NA
ENDBRANCH   1  13
BRANCH   7  16
ATOM     16  C   UNL     1       0.014  -2.319  -6.611  0.00  0.00    +0.180 C 
BRANCH  16  17
ATOM     17  N   UNL     1      -1.372  -1.923  -6.873  0.00  0.00    -0.335 N 
ATOM     18  H   UNL     1      -2.103  -2.459  -6.528  0.00  0.00    +0.147 HD
BRANCH  17  19
ATOM     19  C   UNL     1      -1.639  -0.781  -7.614  0.00  0.00    +0.057 A 
ATOM     20  C   UNL     1      -0.610  -0.003  -8.121  0.00  0.00    +0.045 A 
ATOM     21  C   UNL     1      -0.906   1.135  -8.860  0.00  0.00    +0.113 A 
ATOM     22  N   UNL     1      -2.144   1.502  -9.096  0.00  0.00    -0.253 NA
ATOM     23  C   UNL     1      -3.184   0.799  -8.637  0.00  0.00    +0.094 A 
ATOM     24  C   UNL     1      -2.970  -0.378  -7.880  0.00  0.00    +0.110 A 
ATOM     25  N   UNL     1      -4.007  -1.084  -7.426  0.00  0.00    -0.248 NA
ATOM     26  C   UNL     1      -5.241  -0.717  -7.668  0.00  0.00    +0.157 A 
ATOM     27  C   UNL     1      -5.529   0.431  -8.414  0.00  0.00    +0.140 A 
ATOM     28  C   UNL     1      -4.507   1.205  -8.897  0.00  0.00    +0.077 A 
BRANCH  27  29
ATOM     29  O   UNL     1      -6.820   0.785  -8.648  0.00  0.00    -0.494 OA
ATOM     30  C   UNL     1      -7.834  -0.061  -8.102  0.00  0.00    +0.277 C 
ENDBRANCH  27  29
ENDBRANCH  17  19
ENDBRANCH  16  17
ENDBRANCH   7  16
TORSDOF 5
