REMARK  Name = CHEMBL413996
REMARK  11 active torsions:
REMARK  status: ('A' for Active; 'I' for Inactive)
REMARK    1  A    between atoms: C_1  and  C_2
REMARK    2  A    between atoms: C_3  and  O_33
REMARK    3  A    between atoms: C_7  and  O_11
REMARK    4  A    between atoms: O_11  and  C_12
REMARK    5  A    between atoms: C_15  and  N_19
REMARK    6  A    between atoms: C_23  and  C_25
REMARK    7  A    between atoms: C_25  and  C_26
REMARK    8  A    between atoms: O_33  and  C_34
REMARK    9  A    between atoms: C_34  and  C_35
REMARK   10  A    between atoms: C_35  and  N_36
REMARK   11  A    between atoms: N_39  and  C_42
REMARK                            x       y       z     vdW  Elec       q    Type
REMARK                         _______ _______ _______ _____ _____    ______ ____
ROOT
ATOM      1  C   UNL     1       0.259   1.261   4.077  0.00  0.00    +0.166 A 
ATOM      2  C   UNL     1      -0.968   1.524   4.669  0.00  0.00    +0.051 A 
ATOM      3  C   UNL     1      -1.044   1.748   6.029  0.00  0.00    +0.027 A 
ATOM      4  C   UNL     1       0.106   1.710   6.806  0.00  0.00    +0.038 A 
ATOM      5  C   UNL     1       1.334   1.446   6.215  0.00  0.00    +0.065 A 
ATOM      6  C   UNL     1       1.410   1.217   4.853  0.00  0.00    +0.167 A 
ATOM      7  F   UNL     1       2.604   0.956   4.277  0.00  0.00    -0.202 F 
ENDROOT
BRANCH   4   8
ATOM      8  N   UNL     1       0.028   1.937   8.186  0.00  0.00    -0.269 N 
ATOM      9  C   UNL     1      -1.044   1.506   8.880  0.00  0.00    +0.310 C 
ATOM     10  O   UNL     1      -1.981   0.997   8.297  0.00  0.00    -0.252 OA
ATOM     11  N   UNL     1      -1.077   1.640  10.221  0.00  0.00    -0.240 N 
ATOM     12  C   UNL     1      -2.149   1.209  10.915  0.00  0.00    +0.225 C 
ATOM     13  O   UNL     1      -3.083   0.701  10.334  0.00  0.00    -0.275 OA
ATOM     14  H   UNL     1       0.745   2.405   8.642  0.00  0.00    +0.156 HD
ATOM     15  H   UNL     1      -0.329   2.046  10.686  0.00  0.00    +0.159 HD
BRANCH  12  16
ATOM     16  C   UNL     1      -2.185   1.358  12.414  0.00  0.00    +0.131 C 
BRANCH  16  17
ATOM     17  C   UNL     1      -3.482   0.802  12.943  0.00  0.00    -0.038 A 
ATOM     18  C   UNL     1      -4.589   1.622  13.061  0.00  0.00    +0.007 A 
ATOM     19  C   UNL     1      -5.779   1.113  13.545  0.00  0.00    +0.038 A 
ATOM     20  C   UNL     1      -5.862  -0.219  13.913  0.00  0.00    +0.123 A 
ATOM     21  C   UNL     1      -4.753  -1.040  13.795  0.00  0.00    +0.038 A 
ATOM     22  C   UNL     1      -3.566  -0.530  13.305  0.00  0.00    +0.007 A 
ATOM     23  F   UNL     1      -7.025  -0.718  14.387  0.00  0.00    -0.205 F 
ENDBRANCH  16  17
ENDBRANCH  12  16
ENDBRANCH   4   8
BRANCH   1  24
ATOM     24  O   UNL     1       0.334   1.041   2.737  0.00  0.00    -0.433 OA
BRANCH  24  31
ATOM     25  C   UNL     1       0.308   1.775  -0.267  0.00  0.00    +0.050 C 
ATOM     26  C   UNL     1       0.254   0.269  -0.220  0.00  0.00    +0.023 A 
ATOM     27  C   UNL     1       0.210  -0.596  -1.317  0.00  0.00    +0.144 A 
ATOM     28  C   UNL     1       0.170  -1.873  -0.842  0.00  0.00    +0.159 A 
ATOM     29  N   UNL     1       0.188  -1.839   0.511  0.00  0.00    -0.229 N 
ATOM     30  C   UNL     1       0.246  -0.518   0.916  0.00  0.00    +0.134 A 
ATOM     31  C   UNL     1       0.279  -0.238   2.299  0.00  0.00    +0.248 A 
ATOM     32  N   UNL     1       0.258  -1.239   3.161  0.00  0.00    -0.198 NA
ATOM     33  C   UNL     1       0.205  -2.507   2.758  0.00  0.00    +0.247 A 
ATOM     34  N   UNL     1       0.164  -2.836   1.496  0.00  0.00    -0.155 NA
BRANCH  27  35
ATOM     35  O   UNL     1       0.206  -0.228  -2.628  0.00  0.00    -0.489 OA
BRANCH  35  36
ATOM     36  C   UNL     1       0.156  -1.278  -3.596  0.00  0.00    +0.244 C 
BRANCH  36  37
ATOM     37  C   UNL     1       0.160  -0.676  -5.003  0.00  0.00    +0.125 C 
BRANCH  37  38
ATOM     38  N   UNL     1       1.425   0.036  -5.227  0.00  0.00    -0.303 NA
ATOM     39  C   UNL     1       1.302   0.992  -6.337  0.00  0.00    +0.066 C 
ATOM     40  C   UNL     1       2.619   1.753  -6.500  0.00  0.00    -0.064 C 
ATOM     41  N   UNL     1       3.705   0.801  -6.768  0.00  0.00    +0.379 N 
ATOM     42  C   UNL     1       3.832  -0.131  -5.640  0.00  0.00    -0.064 C 
ATOM     43  C   UNL     1       2.525  -0.908  -5.471  0.00  0.00    +0.066 C 
ATOM     44  C   UNL     1       4.966   1.534  -6.942  0.00  0.00    -0.096 C 
ATOM     45  H   UNL     1       3.498   0.285  -7.610  0.00  0.00    -0.082 HD
ENDBRANCH  37  38
ENDBRANCH  36  37
ENDBRANCH  35  36
ENDBRANCH  27  35
ENDBRANCH  24  31
ENDBRANCH   1  24
TORSDOF 9
