REMARK  Name = CHEMBL568138
REMARK  6 active torsions:
REMARK  status: ('A' for Active; 'I' for Inactive)
REMARK    1  A    between atoms: C_1  and  O_2
REMARK    2  A    between atoms: O_2  and  C_3
REMARK    3  A    between atoms: C_7  and  N_11
REMARK    4  A    between atoms: N_11  and  C_12
REMARK    5  A    between atoms: C_12  and  C_13
REMARK    6  A    between atoms: C_19  and  C_22
REMARK                            x       y       z     vdW  Elec       q    Type
REMARK                         _______ _______ _______ _____ _____    ______ ____
ROOT
ATOM      1  C   UNL     1      -8.511  -1.292   0.067  0.00  0.00    +0.172 A 
ATOM      2  N   UNL     1      -9.058  -0.756   1.129  0.00  0.00    -0.131 NA
ATOM      3  N   UNL     1      -9.958   0.097   0.784  0.00  0.00    -0.128 NA
ATOM      4  C   UNL     1     -10.029   0.147  -0.536  0.00  0.00    +0.178 A 
ATOM      5  N   UNL     1      -9.096  -0.741  -1.019  0.00  0.00    -0.195 N 
ATOM      6  N   UNL     1      -8.933  -0.905  -2.396  0.00  0.00    -0.163 NA
ATOM      7  C   UNL     1      -9.665  -0.214  -3.241  0.00  0.00    +0.092 A 
ATOM      8  C   UNL     1     -10.628   0.707  -2.777  0.00  0.00    +0.034 A 
ATOM      9  C   UNL     1     -10.816   0.883  -1.442  0.00  0.00    +0.052 A 
ENDROOT
BRANCH   7  10
ATOM     10  C   UNL     1      -9.475  -0.404  -4.700  0.00  0.00    +0.007 A 
ATOM     11  C   UNL     1     -10.241   0.328  -5.605  0.00  0.00    +0.048 A 
ATOM     12  C   UNL     1     -10.061   0.148  -6.964  0.00  0.00    +0.127 A 
ATOM     13  C   UNL     1      -9.120  -0.757  -7.426  0.00  0.00    +0.076 A 
ATOM     14  C   UNL     1      -8.357  -1.487  -6.530  0.00  0.00    +0.127 A 
ATOM     15  C   UNL     1      -8.527  -1.310  -5.170  0.00  0.00    +0.048 A 
ATOM     16  F   UNL     1      -7.441  -2.369  -6.986  0.00  0.00    -0.205 F 
ATOM     17  F   UNL     1     -10.803   0.857  -7.843  0.00  0.00    -0.205 F 
ENDBRANCH   7  10
BRANCH   1  18
ATOM     18  C   UNL     1      -7.420  -2.332   0.056  0.00  0.00    +0.180 C 
BRANCH  18  19
ATOM     19  N   UNL     1      -6.113  -1.669   0.047  0.00  0.00    -0.335 N 
ATOM     20  H   UNL     1      -6.061  -0.700   0.048  0.00  0.00    +0.147 HD
BRANCH  19  25
ATOM     21  C   UNL     1      -1.200  -0.637   0.010  0.00  0.00    +0.140 A 
ATOM     22  C   UNL     1      -1.257  -2.016   0.009  0.00  0.00    +0.077 A 
ATOM     23  C   UNL     1      -2.524  -2.628   0.018  0.00  0.00    +0.094 A 
ATOM     24  C   UNL     1      -3.676  -1.806   0.028  0.00  0.00    +0.110 A 
ATOM     25  C   UNL     1      -4.951  -2.426   0.037  0.00  0.00    +0.057 A 
ATOM     26  C   UNL     1      -5.001  -3.810   0.036  0.00  0.00    +0.045 A 
ATOM     27  C   UNL     1      -3.822  -4.543   0.026  0.00  0.00    +0.113 A 
ATOM     28  N   UNL     1      -2.646  -3.959   0.017  0.00  0.00    -0.253 NA
ATOM     29  N   UNL     1      -3.558  -0.478   0.028  0.00  0.00    -0.248 NA
ATOM     30  C   UNL     1      -2.385   0.105   0.025  0.00  0.00    +0.157 A 
BRANCH  21  32
ATOM     31  C   UNL     1      -0.017   1.425   0.010  0.00  0.00    +0.277 C 
ATOM     32  O   UNL     1       0.002  -0.004   0.002  0.00  0.00    -0.494 OA
ENDBRANCH  21  32
ENDBRANCH  19  25
ENDBRANCH  18  19
ENDBRANCH   1  18
TORSDOF 5
