REMARK  Name = CHEMBL400332
REMARK  12 active torsions:
REMARK  status: ('A' for Active; 'I' for Inactive)
REMARK    1  A    between atoms: C_1  and  C_2
REMARK    2  A    between atoms: C_3  and  O_30
REMARK    3  A    between atoms: C_7  and  O_11
REMARK    4  A    between atoms: O_11  and  C_12
REMARK    5  A    between atoms: C_15  and  N_19
REMARK    6  A    between atoms: C_20  and  C_22
REMARK    7  A    between atoms: O_30  and  C_31
REMARK    8  A    between atoms: C_31  and  C_32
REMARK    9  A    between atoms: C_32  and  C_33
REMARK   10  A    between atoms: C_33  and  N_34
REMARK   11  A    between atoms: N_34  and  C_35
REMARK   12  A    between atoms: N_34  and  C_36
REMARK                            x       y       z     vdW  Elec       q    Type
REMARK                         _______ _______ _______ _____ _____    ______ ____
ROOT
ATOM      1  O   UNL     1       0.036   0.638   2.990  0.00  0.00    -0.433 OA
ENDROOT
BRANCH   1   8
ATOM      2  C   UNL     1      -0.074   1.448   0.007  0.00  0.00    +0.050 C 
ATOM      3  C   UNL     1       0.044  -0.054   0.012  0.00  0.00    +0.023 A 
ATOM      4  C   UNL     1       0.097  -0.888  -1.109  0.00  0.00    +0.144 A 
ATOM      5  C   UNL     1       0.203  -2.174  -0.669  0.00  0.00    +0.159 A 
ATOM      6  N   UNL     1       0.218  -2.176   0.684  0.00  0.00    -0.229 N 
ATOM      7  C   UNL     1       0.125  -0.870   1.126  0.00  0.00    +0.134 A 
ATOM      8  C   UNL     1       0.128  -0.626   2.516  0.00  0.00    +0.248 A 
ATOM      9  N   UNL     1       0.221  -1.647   3.350  0.00  0.00    -0.198 NA
ATOM     10  C   UNL     1       0.313  -2.901   2.912  0.00  0.00    +0.247 A 
ATOM     11  N   UNL     1       0.309  -3.197   1.641  0.00  0.00    -0.155 NA
BRANCH   4  12
ATOM     12  O   UNL     1       0.051  -0.487  -2.409  0.00  0.00    -0.490 OA
BRANCH  12  13
ATOM     13  C   UNL     1       0.121  -1.508  -3.406  0.00  0.00    +0.227 C 
BRANCH  13  14
ATOM     14  C   UNL     1       0.055  -0.870  -4.795  0.00  0.00    +0.022 C 
BRANCH  14  15
ATOM     15  C   UNL     1       0.129  -1.964  -5.862  0.00  0.00    -0.076 C 
BRANCH  15  16
ATOM     16  N   UNL     1       0.066  -1.351  -7.196  0.00  0.00    +0.376 N 
ATOM     17  C   UNL     1       1.257  -0.518  -7.409  0.00  0.00    -0.097 C 
ATOM     18  C   UNL     1       0.017  -2.406  -8.218  0.00  0.00    -0.097 C 
ATOM     19  H   UNL     1      -0.762  -0.778  -7.264  0.00  0.00    -0.083 HD
ENDBRANCH  15  16
ENDBRANCH  14  15
ENDBRANCH  13  14
ENDBRANCH  12  13
ENDBRANCH   4  12
ENDBRANCH   1   8
BRANCH   1  20
ATOM     20  C   UNL     1      -0.063   0.811   4.335  0.00  0.00    +0.166 A 
ATOM     21  C   UNL     1      -1.310   0.931   4.929  0.00  0.00    +0.051 A 
ATOM     22  C   UNL     1      -1.411   1.105   6.295  0.00  0.00    +0.027 A 
ATOM     23  C   UNL     1      -0.264   1.162   7.076  0.00  0.00    +0.037 A 
ATOM     24  C   UNL     1       0.986   1.042   6.482  0.00  0.00    +0.065 A 
ATOM     25  C   UNL     1       1.086   0.861   5.115  0.00  0.00    +0.167 A 
ATOM     26  F   UNL     1       2.301   0.739   4.537  0.00  0.00    -0.202 F 
BRANCH  23  27
ATOM     27  N   UNL     1      -0.367   1.340   8.460  0.00  0.00    -0.281 N 
ATOM     28  C   UNL     1       0.556   2.070   9.117  0.00  0.00    +0.254 C 
ATOM     29  O   UNL     1       1.524   2.503   8.521  0.00  0.00    -0.270 OA
ATOM     30  H   UNL     1      -1.103   0.937   8.948  0.00  0.00    +0.155 HD
BRANCH  28  31
ATOM     31  C   UNL     1       0.393   2.344  10.557  0.00  0.00    +0.107 A 
ATOM     32  C   UNL     1       0.932   1.468  11.505  0.00  0.00    +0.138 A 
ATOM     33  C   UNL     1       0.775   1.732  12.853  0.00  0.00    +0.039 A 
ATOM     34  C   UNL     1       0.086   2.859  13.264  0.00  0.00    +0.006 A 
ATOM     35  C   UNL     1      -0.451   3.730  12.334  0.00  0.00    +0.039 A 
ATOM     36  C   UNL     1      -0.298   3.484  10.982  0.00  0.00    +0.138 A 
ATOM     37  F   UNL     1      -0.819   4.338  10.075  0.00  0.00    -0.205 F 
ATOM     38  F   UNL     1       1.605   0.367  11.105  0.00  0.00    -0.205 F 
ENDBRANCH  28  31
ENDBRANCH  23  27
ENDBRANCH   1  20
TORSDOF 9
