REMARK  Name = CHEMBL510112
REMARK  11 active torsions:
REMARK  status: ('A' for Active; 'I' for Inactive)
REMARK    1  A    between atoms: C_1  and  O_2
REMARK    2  A    between atoms: O_2  and  C_3
REMARK    3  A    between atoms: C_6  and  O_15
REMARK    4  A    between atoms: C_12  and  O_13
REMARK    5  A    between atoms: O_13  and  C_14
REMARK    6  A    between atoms: O_15  and  C_16
REMARK    7  A    between atoms: C_19  and  N_22
REMARK    8  A    between atoms: N_22  and  C_23
REMARK    9  A    between atoms: C_23  and  N_25
REMARK   10  A    between atoms: C_26  and  C_28
REMARK   11  A    between atoms: C_28  and  C_29
REMARK                            x       y       z     vdW  Elec       q    Type
REMARK                         _______ _______ _______ _____ _____    ______ ____
ROOT
ATOM      1  C   UNL     1       2.924   2.299   5.184  0.00  0.00    +0.221 A 
ATOM      2  C   UNL     1       2.467   3.573   5.496  0.00  0.00    +0.069 A 
ATOM      3  C   UNL     1       2.963   4.212   6.618  0.00  0.00    +0.030 A 
ATOM      4  C   UNL     1       3.909   3.547   7.396  0.00  0.00    +0.051 A 
ATOM      5  C   UNL     1       4.319   2.276   7.023  0.00  0.00    +0.138 A 
ATOM      6  N   UNL     1       3.819   1.695   5.949  0.00  0.00    -0.219 NA
ENDROOT
BRANCH   4   7
ATOM      7  N   UNL     1       4.440   4.156   8.541  0.00  0.00    -0.295 N 
ATOM      8  H   UNL     1       5.394   4.122   8.710  0.00  0.00    +0.154 HD
BRANCH   7   9
ATOM      9  C   UNL     1       3.624   4.788   9.408  0.00  0.00    +0.141 C 
ATOM     10  S   UNL     1       1.956   4.944   9.055  0.00  0.00    -0.018 S 
BRANCH   9  11
ATOM     11  N   UNL     1       4.122   5.299  10.551  0.00  0.00    -0.267 N 
ATOM     12  C   UNL     1       3.306   5.932  11.418  0.00  0.00    +0.223 C 
ATOM     13  O   UNL     1       2.125   6.042  11.168  0.00  0.00    -0.275 OA
ATOM     14  H   UNL     1       5.067   5.211  10.751  0.00  0.00    +0.157 HD
BRANCH  12  15
ATOM     15  C   UNL     1       3.863   6.502  12.697  0.00  0.00    +0.131 C 
BRANCH  15  16
ATOM     16  C   UNL     1       2.752   7.152  13.482  0.00  0.00    -0.039 A 
ATOM     17  C   UNL     1       2.453   8.487  13.281  0.00  0.00    +0.004 A 
ATOM     18  C   UNL     1       1.435   9.083  14.002  0.00  0.00    +0.000 A 
ATOM     19  C   UNL     1       0.715   8.344  14.922  0.00  0.00    +0.000 A 
ATOM     20  C   UNL     1       1.013   7.009  15.121  0.00  0.00    +0.000 A 
ATOM     21  C   UNL     1       2.029   6.412  14.398  0.00  0.00    +0.004 A 
ENDBRANCH  15  16
ENDBRANCH  12  15
ENDBRANCH   9  11
ENDBRANCH   7   9
ENDBRANCH   4   7
BRANCH   1  22
ATOM     22  O   UNL     1       2.443   1.663   4.086  0.00  0.00    -0.437 OA
BRANCH  22  26
ATOM     23  C   UNL     1       0.580  -1.558   6.042  0.00  0.00    +0.162 A 
ATOM     24  C   UNL     1       1.162  -0.488   5.425  0.00  0.00    +0.063 A 
ATOM     25  C   UNL     1       2.214  -0.696   4.521  0.00  0.00    +0.046 A 
ATOM     26  C   UNL     1       2.841   0.386   3.864  0.00  0.00    +0.141 A 
ATOM     27  C   UNL     1       3.872   0.103   2.986  0.00  0.00    +0.066 A 
ATOM     28  C   UNL     1       4.258  -1.216   2.778  0.00  0.00    +0.115 A 
ATOM     29  N   UNL     1       3.669  -2.214   3.394  0.00  0.00    -0.255 NA
ATOM     30  C   UNL     1       2.665  -2.013   4.256  0.00  0.00    +0.078 A 
ATOM     31  C   UNL     1       2.046  -3.093   4.907  0.00  0.00    +0.077 A 
ATOM     32  C   UNL     1       1.028  -2.861   5.786  0.00  0.00    +0.164 A 
BRANCH  23  34
ATOM     33  C   UNL     1      -0.850  -0.004   7.137  0.00  0.00    +0.277 C 
ATOM     34  O   UNL     1      -0.440  -1.356   6.918  0.00  0.00    -0.491 OA
ENDBRANCH  23  34
BRANCH  32  35
ATOM     35  O   UNL     1       0.436  -3.909   6.418  0.00  0.00    -0.491 OA
ATOM     36  C   UNL     1       0.935  -5.214   6.116  0.00  0.00    +0.277 C 
ENDBRANCH  32  35
ENDBRANCH  22  26
ENDBRANCH   1  22
TORSDOF 9
