REMARK  Name = CHEMBL493313
REMARK  3 active torsions:
REMARK  status: ('A' for Active; 'I' for Inactive)
REMARK    1  A    between atoms: C_6  and  C_7
REMARK    2  A    between atoms: C_12  and  C_14
REMARK    3  A    between atoms: C_18  and  C_19
REMARK                            x       y       z     vdW  Elec       q    Type
REMARK                         _______ _______ _______ _____ _____    ______ ____
ROOT
ATOM      1  C   UNL     1      -1.268  -0.764   0.011  0.00  0.00    +0.033 A 
ATOM      2  C   UNL     1      -2.271  -0.789   1.086  0.00  0.00    +0.098 A 
ATOM      3  C   UNL     1      -3.298  -1.647   0.642  0.00  0.00    +0.066 A 
ATOM      4  C   UNL     1      -4.400  -1.866   1.467  0.00  0.00    +0.030 A 
ATOM      5  C   UNL     1      -4.441  -1.231   2.693  0.00  0.00    +0.041 A 
ATOM      6  C   UNL     1      -3.387  -0.393   3.071  0.00  0.00    +0.141 A 
ATOM      7  N   UNL     1      -2.349  -0.199   2.271  0.00  0.00    -0.234 NA
ATOM      8  N   UNL     1      -2.954  -2.111  -0.607  0.00  0.00    -0.352 N 
ATOM      9  H   UNL     1      -3.489  -2.720  -1.140  0.00  0.00    +0.166 HD
ATOM     10  C   UNL     1      -1.746  -1.583  -0.991  0.00  0.00    +0.060 A 
ENDROOT
BRANCH   1  16
ATOM     11  C   UNL     1      -0.017   1.391   0.010  0.00  0.00    +0.011 A 
ATOM     12  C   UNL     1       1.170   2.095   0.002  0.00  0.00    +0.039 A 
ATOM     13  C   UNL     1       2.379   1.418  -0.013  0.00  0.00    +0.123 A 
ATOM     14  C   UNL     1       2.403   0.033  -0.022  0.00  0.00    +0.039 A 
ATOM     15  C   UNL     1       1.222  -0.680  -0.014  0.00  0.00    +0.011 A 
ATOM     16  C   UNL     1       0.002  -0.004   0.002  0.00  0.00    -0.014 A 
ATOM     17  F   UNL     1       3.538   2.112  -0.021  0.00  0.00    -0.205 F 
ENDBRANCH   1  16
BRANCH  10  18
ATOM     18  C   UNL     1      -1.065  -1.853  -2.273  0.00  0.00    +0.035 A 
ATOM     19  C   UNL     1      -0.487  -0.815  -3.014  0.00  0.00    +0.124 A 
ATOM     20  N   UNL     1       0.114  -1.102  -4.155  0.00  0.00    -0.243 NA
ATOM     21  C   UNL     1       0.173  -2.342  -4.598  0.00  0.00    +0.221 A 
ATOM     22  N   UNL     1      -0.358  -3.350  -3.933  0.00  0.00    -0.243 NA
ATOM     23  C   UNL     1      -0.973  -3.155  -2.779  0.00  0.00    +0.124 A 
ENDBRANCH  10  18
BRANCH   6  24
ATOM     24  C   UNL     1      -3.431   0.265   4.342  0.00  0.00    +0.119 C 
ATOM     25  N   UNL     1      -3.465   0.787   5.351  0.00  0.00    -0.189 NA
ENDBRANCH   6  24
TORSDOF 3
