REMARK  Name = CHEMBL254760
REMARK  9 active torsions:
REMARK  status: ('A' for Active; 'I' for Inactive)
REMARK    1  A    between atoms: C_1  and  N_2
REMARK    2  A    between atoms: C_4  and  C_7
REMARK    3  A    between atoms: C_12  and  O_16
REMARK    4  A    between atoms: O_16  and  C_17
REMARK    5  A    between atoms: C_20  and  N_24
REMARK    6  A    between atoms: N_24  and  C_25
REMARK    7  A    between atoms: C_25  and  N_27
REMARK    8  A    between atoms: C_28  and  C_30
REMARK    9  A    between atoms: C_30  and  C_31
REMARK                            x       y       z     vdW  Elec       q    Type
REMARK                         _______ _______ _______ _____ _____    ______ ____
ROOT
ATOM      1  C   UNL     1       0.076  -6.685  -6.641  0.00  0.00    +0.164 A 
ATOM      2  C   UNL     1      -0.357  -7.954  -6.287  0.00  0.00    +0.051 A 
ATOM      3  C   UNL     1      -0.357  -8.970  -7.222  0.00  0.00    +0.027 A 
ATOM      4  C   UNL     1       0.075  -8.722  -8.518  0.00  0.00    +0.036 A 
ATOM      5  C   UNL     1       0.509  -7.452  -8.874  0.00  0.00    +0.065 A 
ATOM      6  C   UNL     1       0.504  -6.434  -7.939  0.00  0.00    +0.167 A 
ATOM      7  F   UNL     1       0.920  -5.196  -8.286  0.00  0.00    -0.202 F 
ENDROOT
BRANCH   4   8
ATOM      8  N   UNL     1       0.075  -9.753  -9.466  0.00  0.00    -0.297 N 
ATOM      9  H   UNL     1       0.849  -9.890 -10.034  0.00  0.00    +0.154 HD
BRANCH   8  10
ATOM     10  C   UNL     1      -1.002 -10.555  -9.589  0.00  0.00    +0.141 C 
ATOM     11  S   UNL     1      -2.321 -10.389  -8.510  0.00  0.00    -0.018 S 
BRANCH  10  12
ATOM     12  N   UNL     1      -1.040 -11.488 -10.561  0.00  0.00    -0.267 N 
ATOM     13  C   UNL     1      -2.116 -12.290 -10.684  0.00  0.00    +0.223 C 
ATOM     14  O   UNL     1      -3.050 -12.172  -9.920  0.00  0.00    -0.275 OA
ATOM     15  H   UNL     1      -0.292 -11.582 -11.172  0.00  0.00    +0.157 HD
BRANCH  13  16
ATOM     16  C   UNL     1      -2.158 -13.333 -11.771  0.00  0.00    +0.131 C 
BRANCH  16  17
ATOM     17  C   UNL     1      -3.459 -14.089 -11.691  0.00  0.00    -0.039 A 
ATOM     18  C   UNL     1      -3.552 -15.225 -10.909  0.00  0.00    +0.004 A 
ATOM     19  C   UNL     1      -4.745 -15.919 -10.836  0.00  0.00    +0.000 A 
ATOM     20  C   UNL     1      -5.847 -15.476 -11.544  0.00  0.00    +0.000 A 
ATOM     21  C   UNL     1      -5.755 -14.339 -12.325  0.00  0.00    +0.000 A 
ATOM     22  C   UNL     1      -4.562 -13.643 -12.395  0.00  0.00    +0.004 A 
ENDBRANCH  16  17
ENDBRANCH  13  16
ENDBRANCH  10  12
ENDBRANCH   8  10
ENDBRANCH   4   8
BRANCH   1  23
ATOM     23  O   UNL     1       0.077  -5.685  -5.720  0.00  0.00    -0.452 OA
BRANCH  23  29
ATOM     24  C   UNL     1      -1.115  -1.970  -2.821  0.00  0.00    +0.042 A 
ATOM     25  C   UNL     1      -2.085  -1.913  -3.770  0.00  0.00    +0.046 A 
ATOM     26  C   UNL     1      -2.095  -2.847  -4.822  0.00  0.00    +0.082 A 
ATOM     27  C   UNL     1      -1.052  -3.799  -4.795  0.00  0.00    +0.080 A 
ATOM     28  S   UNL     1      -0.125  -3.358  -3.348  0.00  0.00    -0.081 S 
ATOM     29  C   UNL     1      -0.933  -4.779  -5.762  0.00  0.00    +0.146 A 
ATOM     30  C   UNL     1      -1.881  -4.807  -6.784  0.00  0.00    +0.067 A 
ATOM     31  C   UNL     1      -2.887  -3.856  -6.774  0.00  0.00    +0.115 A 
ATOM     32  N   UNL     1      -2.976  -2.938  -5.845  0.00  0.00    -0.254 NA
BRANCH  24  36
ATOM     33  C   UNL     1       0.700   0.092   1.358  0.00  0.00    +0.150 C 
ATOM     34  N   UNL     1      -0.127  -0.193   0.183  0.00  0.00    -0.339 N 
ATOM     35  C   UNL     1       0.075  -1.194  -0.725  0.00  0.00    +0.115 A 
ATOM     36  C   UNL     1      -0.923  -1.094  -1.645  0.00  0.00    +0.095 A 
ATOM     37  N   UNL     1      -1.706  -0.053  -1.292  0.00  0.00    -0.235 NA
ATOM     38  C   UNL     1      -1.239   0.484  -0.200  0.00  0.00    +0.199 A 
ENDBRANCH  24  36
ENDBRANCH  23  29
ENDBRANCH   1  23
TORSDOF 8
