REMARK  Name = CHEMBL1087984
REMARK  10 active torsions:
REMARK  status: ('A' for Active; 'I' for Inactive)
REMARK    1  A    between atoms: C_1  and  O_2
REMARK    2  A    between atoms: O_2  and  C_3
REMARK    3  A    between atoms: C_6  and  O_15
REMARK    4  A    between atoms: C_12  and  O_13
REMARK    5  A    between atoms: O_13  and  C_14
REMARK    6  A    between atoms: O_15  and  C_16
REMARK    7  A    between atoms: C_19  and  N_23
REMARK    8  A    between atoms: C_24  and  C_26
REMARK    9  A    between atoms: N_29  and  C_35
REMARK   10  A    between atoms: C_30  and  C_31
REMARK                            x       y       z     vdW  Elec       q    Type
REMARK                         _______ _______ _______ _____ _____    ______ ____
ROOT
ATOM      1  C   UNL     1       2.894   2.257  -5.237  0.00  0.00    +0.164 A 
ATOM      2  C   UNL     1       3.421   1.450  -6.234  0.00  0.00    +0.051 A 
ATOM      3  C   UNL     1       4.049   2.020  -7.325  0.00  0.00    +0.027 A 
ATOM      4  C   UNL     1       4.153   3.401  -7.423  0.00  0.00    +0.037 A 
ATOM      5  C   UNL     1       3.625   4.210  -6.426  0.00  0.00    +0.065 A 
ATOM      6  C   UNL     1       2.992   3.639  -5.337  0.00  0.00    +0.167 A 
ATOM      7  F   UNL     1       2.474   4.425  -4.368  0.00  0.00    -0.202 F 
ENDROOT
BRANCH   4   8
ATOM      8  N   UNL     1       4.790   3.978  -8.528  0.00  0.00    -0.281 N 
ATOM      9  C   UNL     1       5.517   5.103  -8.376  0.00  0.00    +0.252 C 
ATOM     10  O   UNL     1       5.561   5.656  -7.294  0.00  0.00    -0.270 OA
ATOM     11  H   UNL     1       4.708   3.569  -9.404  0.00  0.00    +0.155 HD
BRANCH   9  12
ATOM     12  C   UNL     1       6.258   5.662  -9.521  0.00  0.00    +0.087 A 
ATOM     13  C   UNL     1       6.297   5.138 -10.832  0.00  0.00    +0.148 A 
ATOM     14  N   UNL     1       7.057   5.912 -11.556  0.00  0.00    -0.174 NA
ATOM     15  N   UNL     1       7.535   6.955 -10.755  0.00  0.00    -0.227 N 
ATOM     16  C   UNL     1       7.040   6.801  -9.514  0.00  0.00    +0.159 A 
BRANCH  15  17
ATOM     17  C   UNL     1       8.383   7.989 -11.175  0.00  0.00    +0.066 A 
ATOM     18  C   UNL     1       8.245   9.263 -10.641  0.00  0.00    +0.028 A 
ATOM     19  C   UNL     1       9.082  10.280 -11.058  0.00  0.00    +0.002 A 
ATOM     20  C   UNL     1      10.057  10.030 -12.006  0.00  0.00    +0.000 A 
ATOM     21  C   UNL     1      10.197   8.762 -12.540  0.00  0.00    +0.002 A 
ATOM     22  C   UNL     1       9.367   7.740 -12.123  0.00  0.00    +0.028 A 
ENDBRANCH  15  17
BRANCH  16  23
ATOM     23  C   UNL     1       7.293   7.702  -8.332  0.00  0.00    +0.435 C 
ATOM     24  F   UNL     1       6.319   8.705  -8.294  0.00  0.00    -0.164 F 
ATOM     25  F   UNL     1       7.237   6.951  -7.153  0.00  0.00    -0.164 F 
ATOM     26  F   UNL     1       8.559   8.285  -8.454  0.00  0.00    -0.164 F 
ENDBRANCH  16  23
ENDBRANCH   9  12
ENDBRANCH   4   8
BRANCH   1  27
ATOM     27  O   UNL     1       2.276   1.695  -4.164  0.00  0.00    -0.452 OA
BRANCH  27  31
ATOM     28  C   UNL     1       0.212  -0.305  -1.095  0.00  0.00    +0.162 A 
ATOM     29  C   UNL     1       0.915   0.339  -2.073  0.00  0.00    +0.063 A 
ATOM     30  C   UNL     1       0.238   0.856  -3.187  0.00  0.00    +0.046 A 
ATOM     31  C   UNL     1       0.931   1.528  -4.219  0.00  0.00    +0.139 A 
ATOM     32  C   UNL     1       0.196   2.011  -5.287  0.00  0.00    +0.066 A 
ATOM     33  C   UNL     1      -1.181   1.825  -5.316  0.00  0.00    +0.115 A 
ATOM     34  N   UNL     1      -1.815   1.200  -4.352  0.00  0.00    -0.255 NA
ATOM     35  C   UNL     1      -1.167   0.707  -3.290  0.00  0.00    +0.078 A 
ATOM     36  C   UNL     1      -1.861   0.040  -2.268  0.00  0.00    +0.077 A 
ATOM     37  C   UNL     1      -1.177  -0.460  -1.197  0.00  0.00    +0.164 A 
BRANCH  28  39
ATOM     38  C   UNL     1       2.284  -0.617   0.030  0.00  0.00    +0.277 C 
ATOM     39  O   UNL     1       0.868  -0.807  -0.015  0.00  0.00    -0.491 OA
ENDBRANCH  28  39
BRANCH  37  40
ATOM     40  O   UNL     1      -1.853  -1.110  -0.214  0.00  0.00    -0.491 OA
ATOM     41  C   UNL     1      -3.268  -1.236  -0.373  0.00  0.00    +0.277 C 
ENDBRANCH  37  40
ENDBRANCH  27  31
ENDBRANCH   1  27
TORSDOF 8
