REMARK  Name = CHEMBL550857
REMARK  5 active torsions:
REMARK  status: ('A' for Active; 'I' for Inactive)
REMARK    1  A    between atoms: C_1  and  N_2
REMARK    2  A    between atoms: C_8  and  C_10
REMARK    3  A    between atoms: N_16  and  S_17
REMARK    4  A    between atoms: S_17  and  C_20
REMARK    5  A    between atoms: C_25  and  N_26
REMARK                            x       y       z     vdW  Elec       q    Type
REMARK                         _______ _______ _______ _____ _____    ______ ____
ROOT
ATOM      1  C   UNL     1      -0.189  -4.177   2.531  0.00  0.00    +0.057 A 
ATOM      2  C   UNL     1      -0.556  -5.231   3.374  0.00  0.00    +0.044 A 
ATOM      3  C   UNL     1       0.301  -5.571   4.409  0.00  0.00    +0.091 A 
ATOM      4  C   UNL     1       1.502  -4.851   4.574  0.00  0.00    +0.090 A 
ATOM      5  C   UNL     1       2.157  -5.419   5.697  0.00  0.00    +0.049 A 
ATOM      6  C   UNL     1       1.388  -6.417   6.165  0.00  0.00    +0.114 A 
ATOM      7  N   UNL     1       0.261  -6.527   5.402  0.00  0.00    -0.217 N 
ATOM      8  N   UNL     1       1.811  -3.852   3.746  0.00  0.00    -0.253 NA
ATOM      9  C   UNL     1       1.022  -3.511   2.755  0.00  0.00    +0.124 A 
ENDROOT
BRANCH   1  17
ATOM     10  C   UNL     1      -5.772  -1.438   2.768  0.00  0.00    +0.105 C 
ATOM     11  N   UNL     1      -4.815  -2.452   2.305  0.00  0.00    -0.302 NA
ATOM     12  C   UNL     1      -3.860  -2.798   3.367  0.00  0.00    +0.103 C 
ATOM     13  C   UNL     1      -2.999  -3.980   2.909  0.00  0.00    +0.123 C 
ATOM     14  N   UNL     1      -2.392  -3.642   1.612  0.00  0.00    -0.295 N 
ATOM     15  C   UNL     1      -3.272  -3.154   0.539  0.00  0.00    +0.123 C 
ATOM     16  C   UNL     1      -4.122  -2.005   1.090  0.00  0.00    +0.103 C 
ATOM     17  C   UNL     1      -1.066  -3.775   1.414  0.00  0.00    +0.248 C 
ATOM     18  O   UNL     1      -0.592  -3.564   0.314  0.00  0.00    -0.270 OA
ENDBRANCH   1  17
BRANCH   7  19
ATOM     19  S   UNL     1      -0.955  -7.627   5.632  0.00  0.00    +0.086 S 
ATOM     20  O   UNL     1      -1.210  -8.221   4.366  0.00  0.00    -0.148 OA
ATOM     21  O   UNL     1      -0.600  -8.392   6.775  0.00  0.00    -0.148 OA
BRANCH  19  22
ATOM     22  C   UNL     1      -2.404  -6.720   6.063  0.00  0.00    +0.141 A 
ATOM     23  C   UNL     1      -3.515  -6.762   5.242  0.00  0.00    +0.031 A 
ATOM     24  C   UNL     1      -4.651  -6.051   5.580  0.00  0.00    +0.002 A 
ATOM     25  C   UNL     1      -4.676  -5.298   6.739  0.00  0.00    +0.002 A 
ATOM     26  C   UNL     1      -3.565  -5.257   7.560  0.00  0.00    +0.035 A 
ATOM     27  C   UNL     1      -2.430  -5.972   7.224  0.00  0.00    +0.153 A 
BRANCH  27  28
ATOM     28  N   UNL     1      -1.242  -5.932   8.107  0.00  0.00    +0.058 N 
ATOM     29  O   UNL     1      -1.228  -5.201   9.069  0.00  0.00    -0.126 OA
ATOM     30  O   UNL     1      -0.285  -6.630   7.864  0.00  0.00    -0.126 OA
ENDBRANCH  27  28
ENDBRANCH  19  22
ENDBRANCH   7  19
TORSDOF 4
