REMARK  Name = CHEMBL508142
REMARK  9 active torsions:
REMARK  status: ('A' for Active; 'I' for Inactive)
REMARK    1  A    between atoms: C_1  and  N_2
REMARK    2  A    between atoms: N_5  and  C_8
REMARK    3  A    between atoms: C_8  and  C_9
REMARK    4  A    between atoms: C_9  and  C_11
REMARK    5  A    between atoms: C_17  and  O_21
REMARK    6  A    between atoms: O_21  and  C_22
REMARK    7  A    between atoms: C_25  and  N_29
REMARK    8  A    between atoms: C_33  and  C_35
REMARK    9  A    between atoms: C_35  and  C_36
REMARK                            x       y       z     vdW  Elec       q    Type
REMARK                         _______ _______ _______ _____ _____    ______ ____
ROOT
ATOM      1  C   UNL     1       1.366  -4.394   6.558  0.00  0.00    +0.164 A 
ATOM      2  C   UNL     1       0.398  -4.185   7.529  0.00  0.00    +0.051 A 
ATOM      3  C   UNL     1       0.769  -3.817   8.807  0.00  0.00    +0.027 A 
ATOM      4  C   UNL     1       2.112  -3.654   9.121  0.00  0.00    +0.038 A 
ATOM      5  C   UNL     1       3.082  -3.862   8.149  0.00  0.00    +0.065 A 
ATOM      6  C   UNL     1       2.710  -4.237   6.872  0.00  0.00    +0.167 A 
ATOM      7  F   UNL     1       3.653  -4.446   5.927  0.00  0.00    -0.202 F 
ENDROOT
BRANCH   4   8
ATOM      8  N   UNL     1       2.488  -3.279  10.417  0.00  0.00    -0.269 N 
ATOM      9  C   UNL     1       1.790  -3.730  11.478  0.00  0.00    +0.310 C 
ATOM     10  O   UNL     1       0.792  -4.403  11.308  0.00  0.00    -0.252 OA
ATOM     11  N   UNL     1       2.197  -3.435  12.728  0.00  0.00    -0.240 N 
ATOM     12  C   UNL     1       1.499  -3.886  13.789  0.00  0.00    +0.225 C 
ATOM     13  O   UNL     1       0.504  -4.557  13.619  0.00  0.00    -0.275 OA
ATOM     14  H   UNL     1       3.251  -2.695  10.552  0.00  0.00    +0.156 HD
ATOM     15  H   UNL     1       2.994  -2.898  12.865  0.00  0.00    +0.159 HD
BRANCH  12  16
ATOM     16  C   UNL     1       1.955  -3.555  15.187  0.00  0.00    +0.131 C 
BRANCH  16  17
ATOM     17  C   UNL     1       1.009  -4.174  16.184  0.00  0.00    -0.038 A 
ATOM     18  C   UNL     1      -0.096  -3.465  16.619  0.00  0.00    +0.007 A 
ATOM     19  C   UNL     1      -0.964  -4.032  17.532  0.00  0.00    +0.038 A 
ATOM     20  C   UNL     1      -0.728  -5.309  18.012  0.00  0.00    +0.123 A 
ATOM     21  C   UNL     1       0.378  -6.018  17.575  0.00  0.00    +0.038 A 
ATOM     22  C   UNL     1       1.243  -5.451  16.657  0.00  0.00    +0.007 A 
ATOM     23  F   UNL     1      -1.577  -5.864  18.905  0.00  0.00    -0.205 F 
ENDBRANCH  16  17
ENDBRANCH  12  16
ENDBRANCH   4   8
BRANCH   1  24
ATOM     24  O   UNL     1       0.999  -4.757   5.299  0.00  0.00    -0.452 OA
BRANCH  24  31
ATOM     25  C   UNL     1      -0.031  -5.862   2.558  0.00  0.00    +0.049 A 
ATOM     26  C   UNL     1      -0.324  -6.857   1.667  0.00  0.00    +0.096 A 
ATOM     27  N   UNL     1      -0.039  -8.060   2.219  0.00  0.00    -0.345 N 
ATOM     28  H   UNL     1      -0.165  -8.914   1.776  0.00  0.00    +0.167 HD
ATOM     29  C   UNL     1       0.453  -7.905   3.496  0.00  0.00    +0.142 A 
ATOM     30  C   UNL     1       0.488  -6.529   3.767  0.00  0.00    +0.071 A 
ATOM     31  C   UNL     1       0.956  -6.081   5.005  0.00  0.00    +0.141 A 
ATOM     32  C   UNL     1       1.376  -7.034   5.928  0.00  0.00    +0.067 A 
ATOM     33  C   UNL     1       1.316  -8.373   5.589  0.00  0.00    +0.117 A 
ATOM     34  N   UNL     1       0.864  -8.769   4.417  0.00  0.00    -0.237 NA
BRANCH  25  35
ATOM     35  C   UNL     1      -0.188  -4.467   2.358  0.00  0.00    +0.179 C 
ATOM     36  O   UNL     1       0.119  -3.689   3.238  0.00  0.00    -0.291 OA
BRANCH  35  37
ATOM     37  C   UNL     1      -0.737  -3.950   1.053  0.00  0.00    +0.164 C 
BRANCH  37  42
ATOM     38  C   UNL     1      -0.377   1.618   0.175  0.00  0.00    +0.105 C 
ATOM     39  N   UNL     1      -0.312   0.151   0.132  0.00  0.00    -0.303 NA
ATOM     40  C   UNL     1      -1.659  -0.434   0.067  0.00  0.00    +0.099 C 
ATOM     41  C   UNL     1      -1.546  -1.955  -0.056  0.00  0.00    +0.100 C 
ATOM     42  N   UNL     1      -0.801  -2.483   1.096  0.00  0.00    -0.293 NA
ATOM     43  C   UNL     1       0.545  -1.899   1.161  0.00  0.00    +0.100 C 
ATOM     44  C   UNL     1       0.433  -0.377   1.284  0.00  0.00    +0.099 C 
ENDBRANCH  37  42
ENDBRANCH  35  37
ENDBRANCH  25  35
ENDBRANCH  24  31
ENDBRANCH   1  24
TORSDOF 8
