REMARK  Name = CHEMBL503901
REMARK  6 active torsions:
REMARK  status: ('A' for Active; 'I' for Inactive)
REMARK    1  A    between atoms: C_6  and  C_7
REMARK    2  A    between atoms: N_9  and  C_35
REMARK    3  A    between atoms: C_11  and  C_14
REMARK    4  A    between atoms: N_16  and  C_17
REMARK    5  A    between atoms: C_20  and  O_24
REMARK    6  A    between atoms: O_24  and  C_25
REMARK                            x       y       z     vdW  Elec       q    Type
REMARK                         _______ _______ _______ _____ _____    ______ ____
ROOT
ATOM      1  C   UNL     1      -1.121  -0.722   0.228  0.00  0.00    +0.046 A 
ATOM      2  C   UNL     1      -1.088  -1.954  -0.350  0.00  0.00    +0.103 A 
ATOM      3  N   UNL     1      -1.903  -2.954   0.065  0.00  0.00    -0.321 N 
ATOM      4  C   UNL     1      -2.792  -2.810   1.063  0.00  0.00    +0.108 A 
ATOM      5  C   UNL     1      -2.925  -1.611   1.733  0.00  0.00    +0.101 A 
ATOM      6  C   UNL     1      -2.063  -0.488   1.332  0.00  0.00    +0.201 A 
ATOM      7  O   UNL     1      -2.131   0.595   1.890  0.00  0.00    -0.286 OA
ENDROOT
BRANCH   3   8
ATOM      8  C   UNL     1      -1.816  -4.196  -0.576  0.00  0.00    +0.049 A 
ATOM      9  C   UNL     1      -2.487  -5.295  -0.057  0.00  0.00    +0.028 A 
ATOM     10  C   UNL     1      -2.400  -6.519  -0.690  0.00  0.00    +0.025 A 
ATOM     11  C   UNL     1      -1.645  -6.652  -1.842  0.00  0.00    +0.076 A 
ATOM     12  C   UNL     1      -0.973  -5.558  -2.362  0.00  0.00    +0.144 A 
ATOM     13  C   UNL     1      -1.063  -4.328  -1.735  0.00  0.00    +0.066 A 
ATOM     14  F   UNL     1      -0.235  -5.690  -3.486  0.00  0.00    -0.204 F 
ATOM     15 CL   UNL     1      -1.537  -8.193  -2.635  0.00  0.00    -0.081 Cl
ENDBRANCH   3   8
BRANCH   1  21
ATOM     16  C   UNL     1      -0.753   1.506  -0.829  0.00  0.00    +0.011 A 
ATOM     17  C   UNL     1       0.088   2.510  -1.264  0.00  0.00    +0.039 A 
ATOM     18  C   UNL     1       1.460   2.380  -1.116  0.00  0.00    +0.123 A 
ATOM     19  C   UNL     1       1.993   1.242  -0.532  0.00  0.00    +0.039 A 
ATOM     20  C   UNL     1       1.160   0.233  -0.094  0.00  0.00    +0.011 A 
ATOM     21  C   UNL     1      -0.221   0.360  -0.241  0.00  0.00    -0.013 A 
ATOM     22  F   UNL     1       2.280   3.365  -1.543  0.00  0.00    -0.205 F 
ENDBRANCH   1  21
BRANCH   5  23
ATOM     23  C   UNL     1      -3.901  -1.461   2.825  0.00  0.00    +0.253 C 
ATOM     24  O   UNL     1      -4.472  -2.439   3.269  0.00  0.00    -0.270 OA
ATOM     25  N   UNL     1      -4.163  -0.240   3.332  0.00  0.00    -0.281 N 
ATOM     26  H   UNL     1      -3.770   0.548   2.925  0.00  0.00    +0.155 HD
BRANCH  25  27
ATOM     27  C   UNL     1      -5.001  -0.109   4.446  0.00  0.00    +0.037 A 
ATOM     28  C   UNL     1      -6.002  -1.044   4.676  0.00  0.00    +0.027 A 
ATOM     29  C   UNL     1      -6.829  -0.915   5.774  0.00  0.00    +0.051 A 
ATOM     30  C   UNL     1      -6.661   0.147   6.649  0.00  0.00    +0.164 A 
ATOM     31  C   UNL     1      -5.660   1.084   6.421  0.00  0.00    +0.167 A 
ATOM     32  C   UNL     1      -4.827   0.952   5.325  0.00  0.00    +0.065 A 
ATOM     33  F   UNL     1      -5.497   2.120   7.273  0.00  0.00    -0.202 F 
BRANCH  30  34
ATOM     34  O   UNL     1      -7.476   0.274   7.730  0.00  0.00    -0.452 OA
BRANCH  34  35
ATOM     35  C   UNL     1      -8.414   1.254   7.710  0.00  0.00    +0.141 A 
ATOM     36  C   UNL     1      -8.614   2.030   6.575  0.00  0.00    +0.066 A 
ATOM     37  C   UNL     1      -9.581   3.020   6.593  0.00  0.00    +0.117 A 
ATOM     38  N   UNL     1     -10.318   3.247   7.661  0.00  0.00    -0.237 NA
ATOM     39  C   UNL     1     -10.173   2.538   8.775  0.00  0.00    +0.142 A 
ATOM     40  C   UNL     1      -9.216   1.510   8.831  0.00  0.00    +0.061 A 
ATOM     41  C   UNL     1      -9.315   0.930  10.171  0.00  0.00    +0.032 A 
ATOM     42  C   UNL     1     -10.283   1.602  10.815  0.00  0.00    +0.085 A 
ATOM     43  N   UNL     1     -10.799   2.572   9.998  0.00  0.00    -0.346 N 
ATOM     44  H   UNL     1     -11.510   3.185  10.242  0.00  0.00    +0.167 HD
ENDBRANCH  34  35
ENDBRANCH  30  34
ENDBRANCH  25  27
ENDBRANCH   5  23
TORSDOF 6
