REMARK  Name = CHEMBL258240
REMARK  9 active torsions:
REMARK  status: ('A' for Active; 'I' for Inactive)
REMARK    1  A    between atoms: C_1  and  N_2
REMARK    2  A    between atoms: C_6  and  C_7
REMARK    3  A    between atoms: C_12  and  O_16
REMARK    4  A    between atoms: O_16  and  C_17
REMARK    5  A    between atoms: C_20  and  N_24
REMARK    6  A    between atoms: N_24  and  C_25
REMARK    7  A    between atoms: C_25  and  N_27
REMARK    8  A    between atoms: C_28  and  C_30
REMARK    9  A    between atoms: C_30  and  C_31
REMARK                            x       y       z     vdW  Elec       q    Type
REMARK                         _______ _______ _______ _____ _____    ______ ____
ROOT
ATOM      1  C   UNL     1       0.610   3.466   7.273  0.00  0.00    +0.164 A 
ATOM      2  C   UNL     1       0.807   2.678   8.397  0.00  0.00    +0.051 A 
ATOM      3  C   UNL     1       0.871   3.262   9.647  0.00  0.00    +0.027 A 
ATOM      4  C   UNL     1       0.737   4.638   9.780  0.00  0.00    +0.036 A 
ATOM      5  C   UNL     1       0.539   5.427   8.655  0.00  0.00    +0.065 A 
ATOM      6  C   UNL     1       0.482   4.843   7.403  0.00  0.00    +0.167 A 
ATOM      7  F   UNL     1       0.295   5.611   6.307  0.00  0.00    -0.202 F 
ENDROOT
BRANCH   4   8
ATOM      8  N   UNL     1       0.801   5.229  11.047  0.00  0.00    -0.297 N 
ATOM      9  H   UNL     1       0.143   5.894  11.306  0.00  0.00    +0.154 HD
BRANCH   8  10
ATOM     10  C   UNL     1       1.775   4.874  11.908  0.00  0.00    +0.141 C 
ATOM     11  S   UNL     1       2.864   3.619  11.498  0.00  0.00    -0.018 S 
BRANCH  10  12
ATOM     12  N   UNL     1       1.891   5.507  13.092  0.00  0.00    -0.267 N 
ATOM     13  C   UNL     1       2.866   5.152  13.953  0.00  0.00    +0.223 C 
ATOM     14  O   UNL     1       3.637   4.263  13.663  0.00  0.00    -0.275 OA
ATOM     15  H   UNL     1       1.274   6.219  13.325  0.00  0.00    +0.157 HD
BRANCH  13  16
ATOM     16  C   UNL     1       2.996   5.860  15.277  0.00  0.00    +0.131 C 
BRANCH  16  17
ATOM     17  C   UNL     1       4.155   5.279  16.046  0.00  0.00    -0.039 A 
ATOM     18  C   UNL     1       3.952   4.207  16.895  0.00  0.00    +0.004 A 
ATOM     19  C   UNL     1       5.015   3.673  17.600  0.00  0.00    +0.000 A 
ATOM     20  C   UNL     1       6.280   4.211  17.456  0.00  0.00    +0.000 A 
ATOM     21  C   UNL     1       6.483   5.283  16.606  0.00  0.00    +0.000 A 
ATOM     22  C   UNL     1       5.421   5.813  15.898  0.00  0.00    +0.004 A 
ENDBRANCH  16  17
ENDBRANCH  13  16
ENDBRANCH  10  12
ENDBRANCH   8  10
ENDBRANCH   4   8
BRANCH   1  23
ATOM     23  O   UNL     1       0.547   2.890   6.042  0.00  0.00    -0.452 OA
BRANCH  23  29
ATOM     24  C   UNL     1       1.580   0.972   1.696  0.00  0.00    +0.057 A 
ATOM     25  C   UNL     1       2.720   1.655   1.984  0.00  0.00    +0.047 A 
ATOM     26  C   UNL     1       2.825   2.368   3.192  0.00  0.00    +0.082 A 
ATOM     27  C   UNL     1       1.690   2.307   4.030  0.00  0.00    +0.080 A 
ATOM     28  S   UNL     1       0.554   1.293   3.120  0.00  0.00    -0.080 S 
ATOM     29  C   UNL     1       1.647   2.959   5.250  0.00  0.00    +0.146 A 
ATOM     30  C   UNL     1       2.768   3.689   5.639  0.00  0.00    +0.067 A 
ATOM     31  C   UNL     1       3.861   3.723   4.788  0.00  0.00    +0.115 A 
ATOM     32  N   UNL     1       3.874   3.097   3.639  0.00  0.00    -0.254 NA
BRANCH  24  38
ATOM     33  C   UNL     1      -0.758  -1.045   1.406  0.00  0.00    +0.150 C 
ATOM     34  N   UNL     1       0.235  -0.717   0.380  0.00  0.00    -0.333 N 
ATOM     35  C   UNL     1       0.301  -1.237  -0.885  0.00  0.00    +0.107 A 
ATOM     36  C   UNL     1       1.361  -0.666  -1.493  0.00  0.00    +0.131 A 
ATOM     37  N   UNL     1       1.935   0.183  -0.633  0.00  0.00    -0.235 NA
ATOM     38  C   UNL     1       1.266   0.170   0.501  0.00  0.00    +0.147 A 
ENDBRANCH  24  38
ENDBRANCH  23  29
ENDBRANCH   1  23
TORSDOF 8
