REMARK  Name = CHEMBL252213
REMARK  6 active torsions:
REMARK  status: ('A' for Active; 'I' for Inactive)
REMARK    1  A    between atoms: C_4  and  C_7
REMARK    2  A    between atoms: C_12  and  O_16
REMARK    3  A    between atoms: O_16  and  C_17
REMARK    4  A    between atoms: C_20  and  N_24
REMARK    5  A    between atoms: C_28  and  C_30
REMARK    6  A    between atoms: C_30  and  C_31
REMARK                            x       y       z     vdW  Elec       q    Type
REMARK                         _______ _______ _______ _____ _____    ______ ____
ROOT
ATOM      1  C   UNL     1       1.744  -2.809   3.295  0.00  0.00    +0.166 A 
ATOM      2  C   UNL     1       2.554  -3.763   3.894  0.00  0.00    +0.051 A 
ATOM      3  C   UNL     1       2.079  -4.502   4.959  0.00  0.00    +0.027 A 
ATOM      4  C   UNL     1       0.790  -4.292   5.432  0.00  0.00    +0.038 A 
ATOM      5  C   UNL     1      -0.021  -3.337   4.833  0.00  0.00    +0.065 A 
ATOM      6  C   UNL     1       0.457  -2.593   3.770  0.00  0.00    +0.167 A 
ATOM      7  F   UNL     1      -0.330  -1.660   3.191  0.00  0.00    -0.202 F 
ENDROOT
BRANCH   4   8
ATOM      8  N   UNL     1       0.309  -5.042   6.512  0.00  0.00    -0.269 N 
ATOM      9  C   UNL     1       1.142  -5.398   7.510  0.00  0.00    +0.310 C 
ATOM     10  O   UNL     1       2.327  -5.141   7.433  0.00  0.00    -0.252 OA
ATOM     11  N   UNL     1       0.660  -6.038   8.594  0.00  0.00    -0.240 N 
ATOM     12  C   UNL     1       1.493  -6.394   9.592  0.00  0.00    +0.225 C 
ATOM     13  O   UNL     1       2.676  -6.138   9.515  0.00  0.00    -0.275 OA
ATOM     14  H   UNL     1      -0.624  -5.306   6.542  0.00  0.00    +0.156 HD
ATOM     15  H   UNL     1      -0.286  -6.243   8.656  0.00  0.00    +0.159 HD
BRANCH  12  16
ATOM     16  C   UNL     1       0.955  -7.110  10.804  0.00  0.00    +0.131 C 
BRANCH  16  17
ATOM     17  C   UNL     1       2.083  -7.391  11.763  0.00  0.00    -0.038 A 
ATOM     18  C   UNL     1       2.796  -8.571  11.663  0.00  0.00    +0.007 A 
ATOM     19  C   UNL     1       3.831  -8.831  12.541  0.00  0.00    +0.038 A 
ATOM     20  C   UNL     1       4.153  -7.908  13.523  0.00  0.00    +0.123 A 
ATOM     21  C   UNL     1       3.437  -6.727  13.622  0.00  0.00    +0.038 A 
ATOM     22  C   UNL     1       2.406  -6.468  12.739  0.00  0.00    +0.007 A 
ATOM     23  F   UNL     1       5.163  -8.161  14.383  0.00  0.00    -0.205 F 
ENDBRANCH  16  17
ENDBRANCH  12  16
ENDBRANCH   4   8
BRANCH   1  24
ATOM     24  O   UNL     1       2.213  -2.082   2.246  0.00  0.00    -0.433 OA
BRANCH  24  30
ATOM     25  C   UNL     1       3.544  -0.340   0.108  0.00  0.00    +0.014 A 
ATOM     26  C   UNL     1       4.214   0.793  -0.390  0.00  0.00    +0.030 A 
ATOM     27  C   UNL     1       4.424   1.641   0.647  0.00  0.00    +0.114 A 
ATOM     28  N   UNL     1       3.918   1.100   1.779  0.00  0.00    -0.233 N 
ATOM     29  C   UNL     1       3.362  -0.126   1.473  0.00  0.00    +0.135 A 
ATOM     30  C   UNL     1       2.766  -0.874   2.507  0.00  0.00    +0.249 A 
ATOM     31  N   UNL     1       2.753  -0.384   3.734  0.00  0.00    -0.198 NA
ATOM     32  C   UNL     1       3.290   0.801   4.018  0.00  0.00    +0.247 A 
ATOM     33  N   UNL     1       3.864   1.541   3.109  0.00  0.00    -0.155 NA
BRANCH  25  37
ATOM     34  C   UNL     1       2.303  -3.739  -2.120  0.00  0.00    +0.000 A 
ATOM     35  C   UNL     1       1.991  -2.468  -2.571  0.00  0.00    +0.001 A 
ATOM     36  C   UNL     1       2.391  -1.361  -1.852  0.00  0.00    +0.008 A 
ATOM     37  C   UNL     1       3.111  -1.524  -0.668  0.00  0.00    -0.016 A 
ATOM     38  C   UNL     1       3.422  -2.808  -0.219  0.00  0.00    +0.008 A 
ATOM     39  C   UNL     1       3.016  -3.907  -0.947  0.00  0.00    +0.001 A 
ENDBRANCH  25  37
ENDBRANCH  24  30
ENDBRANCH   1  24
TORSDOF 6
