REMARK  Name = CHEMBL493519
REMARK  3 active torsions:
REMARK  status: ('A' for Active; 'I' for Inactive)
REMARK    1  A    between atoms: C_3  and  C_8
REMARK    2  A    between atoms: C_13  and  C_15
REMARK    3  A    between atoms: C_19  and  C_20
REMARK                            x       y       z     vdW  Elec       q    Type
REMARK                         _______ _______ _______ _____ _____    ______ ____
ROOT
ATOM      1  C   UNL     1       3.658   2.163  -0.022  0.00  0.00    +0.033 A 
ATOM      2  C   UNL     1       4.147   3.051  -1.087  0.00  0.00    +0.098 A 
ATOM      3  C   UNL     1       5.394   3.539  -0.647  0.00  0.00    +0.066 A 
ATOM      4  C   UNL     1       6.104   4.418  -1.465  0.00  0.00    +0.030 A 
ATOM      5  C   UNL     1       5.553   4.776  -2.679  0.00  0.00    +0.041 A 
ATOM      6  C   UNL     1       4.311   4.254  -3.055  0.00  0.00    +0.141 A 
ATOM      7  N   UNL     1       3.654   3.420  -2.261  0.00  0.00    -0.234 NA
ATOM      8  N   UNL     1       5.651   2.995   0.590  0.00  0.00    -0.352 N 
ATOM      9  H   UNL     1       6.445   3.168   1.118  0.00  0.00    +0.166 HD
ATOM     10  C   UNL     1       4.615   2.178   0.971  0.00  0.00    +0.057 A 
ENDROOT
BRANCH   1  13
ATOM     11  C   UNL     1      -0.017   1.379   0.010  0.00  0.00    +0.002 A 
ATOM     12  C   UNL     1       1.167   2.088   0.002  0.00  0.00    +0.009 A 
ATOM     13  C   UNL     1       2.385   1.408  -0.013  0.00  0.00    -0.012 A 
ATOM     14  C   UNL     1       2.398   0.013  -0.021  0.00  0.00    +0.028 A 
ATOM     15  C   UNL     1       1.208  -0.686  -0.013  0.00  0.00    +0.042 A 
ATOM     16  C   UNL     1       0.002  -0.004   0.002  0.00  0.00    +0.020 A 
ATOM     17 CL   UNL     1       1.221  -2.422  -0.023  0.00  0.00    -0.084 Cl
ENDBRANCH   1  13
BRANCH  10  18
ATOM     18  C   UNL     1       4.541   1.429   2.241  0.00  0.00    +0.002 A 
ATOM     19  C   UNL     1       3.360   1.402   2.993  0.00  0.00    +0.029 A 
ATOM     20  C   UNL     1       3.335   0.690   4.174  0.00  0.00    +0.111 A 
ATOM     21  N   UNL     1       4.403   0.041   4.596  0.00  0.00    -0.263 NA
ATOM     22  C   UNL     1       5.536   0.039   3.919  0.00  0.00    +0.111 A 
ATOM     23  C   UNL     1       5.648   0.720   2.725  0.00  0.00    +0.029 A 
ENDBRANCH  10  18
BRANCH   6  24
ATOM     24  C   UNL     1       3.740   4.626  -4.314  0.00  0.00    +0.119 C 
ATOM     25  N   UNL     1       3.288   4.921  -5.314  0.00  0.00    -0.189 NA
ENDBRANCH   6  24
TORSDOF 3
