REMARK  Name = CHEMBL254085
REMARK  9 active torsions:
REMARK  status: ('A' for Active; 'I' for Inactive)
REMARK    1  A    between atoms: C_6  and  C_7
REMARK    2  A    between atoms: C_7  and  C_8
REMARK    3  A    between atoms: N_13  and  C_14
REMARK    4  A    between atoms: C_17  and  O_21
REMARK    5  A    between atoms: O_21  and  C_22
REMARK    6  A    between atoms: C_24  and  C_31
REMARK    7  A    between atoms: C_31  and  N_32
REMARK    8  A    between atoms: C_35  and  N_41
REMARK    9  A    between atoms: C_37  and  O_40
REMARK                            x       y       z     vdW  Elec       q    Type
REMARK                         _______ _______ _______ _____ _____    ______ ____
ROOT
ATOM      1  C   UNL     1      -4.794  -2.757  -4.494  0.00  0.00    +0.038 A 
ATOM      2  C   UNL     1      -5.671  -1.837  -5.053  0.00  0.00    +0.027 A 
ATOM      3  C   UNL     1      -6.051  -1.959  -6.375  0.00  0.00    +0.051 A 
ATOM      4  C   UNL     1      -5.557  -3.000  -7.146  0.00  0.00    +0.166 A 
ATOM      5  C   UNL     1      -4.679  -3.922  -6.589  0.00  0.00    +0.167 A 
ATOM      6  C   UNL     1      -4.295  -3.797  -5.266  0.00  0.00    +0.065 A 
ATOM      7  F   UNL     1      -4.198  -4.936  -7.340  0.00  0.00    -0.202 F 
ENDROOT
BRANCH   1  13
ATOM      8  C   UNL     1      -1.510  -3.096  -1.129  0.00  0.00    +0.225 C 
ATOM      9  O   UNL     1      -0.740  -3.568  -1.938  0.00  0.00    -0.275 OA
ATOM     10  N   UNL     1      -2.762  -2.767  -1.504  0.00  0.00    -0.240 N 
ATOM     11  C   UNL     1      -3.158  -2.962  -2.778  0.00  0.00    +0.310 C 
ATOM     12  O   UNL     1      -2.385  -3.436  -3.588  0.00  0.00    -0.252 OA
ATOM     13  N   UNL     1      -4.410  -2.633  -3.153  0.00  0.00    -0.269 N 
ATOM     14  H   UNL     1      -3.378  -2.389  -0.858  0.00  0.00    +0.159 HD
ATOM     15  H   UNL     1      -5.044  -2.310  -2.494  0.00  0.00    +0.156 HD
BRANCH   8  16
ATOM     16  C   UNL     1      -1.068  -2.877   0.295  0.00  0.00    +0.131 C 
BRANCH  16  22
ATOM     17  C   UNL     1       1.394  -2.428   0.236  0.00  0.00    +0.007 A 
ATOM     18  C   UNL     1       2.706  -2.837   0.379  0.00  0.00    +0.038 A 
ATOM     19  C   UNL     1       2.988  -4.145   0.737  0.00  0.00    +0.123 A 
ATOM     20  C   UNL     1       1.955  -5.041   0.951  0.00  0.00    +0.038 A 
ATOM     21  C   UNL     1       0.643  -4.630   0.808  0.00  0.00    +0.007 A 
ATOM     22  C   UNL     1       0.363  -3.324   0.451  0.00  0.00    -0.038 A 
ATOM     23  F   UNL     1       4.271  -4.546   0.877  0.00  0.00    -0.205 F 
ENDBRANCH  16  22
ENDBRANCH   8  16
ENDBRANCH   1  13
BRANCH   4  24
ATOM     24  O   UNL     1      -5.932  -3.120  -8.448  0.00  0.00    -0.433 OA
BRANCH  24  25
ATOM     25  C   UNL     1      -5.051  -2.737  -9.401  0.00  0.00    +0.248 A 
ATOM     26  C   UNL     1      -5.344  -2.939 -10.767  0.00  0.00    +0.132 A 
ATOM     27  C   UNL     1      -6.417  -3.486 -11.445  0.00  0.00    -0.001 A 
ATOM     28  C   UNL     1      -6.120  -3.402 -12.806  0.00  0.00    +0.027 A 
ATOM     29  C   UNL     1      -4.898  -2.818 -12.933  0.00  0.00    +0.113 A 
ATOM     30  N   UNL     1      -4.417  -2.533 -11.709  0.00  0.00    -0.233 N 
ATOM     31  N   UNL     1      -3.229  -1.940 -11.259  0.00  0.00    -0.155 NA
ATOM     32  C   UNL     1      -3.021  -1.783  -9.981  0.00  0.00    +0.247 A 
ATOM     33  N   UNL     1      -3.909  -2.165  -9.064  0.00  0.00    -0.198 NA
BRANCH  27  34
ATOM     34  C   UNL     1      -7.667  -4.063 -10.833  0.00  0.00    +0.122 C 
BRANCH  34  35
ATOM     35  N   UNL     1      -8.581  -2.973 -10.468  0.00  0.00    -0.296 NA
ATOM     36  C   UNL     1      -8.012  -2.144  -9.397  0.00  0.00    +0.083 C 
ATOM     37  C   UNL     1      -8.921  -0.939  -9.144  0.00  0.00    +0.002 C 
ATOM     38  C   UNL     1     -10.315  -1.433  -8.747  0.00  0.00    -0.044 C 
ATOM     39  C   UNL     1     -10.865  -2.332  -9.857  0.00  0.00    +0.114 C 
ATOM     40  C   UNL     1      -9.900  -3.496 -10.089  0.00  0.00    +0.114 C 
BRANCH  38  41
ATOM     41  N   UNL     1     -11.207  -0.281  -8.558  0.00  0.00    +0.382 N 
ATOM     42  H   UNL     1     -11.269   0.242  -9.419  0.00  0.00    -0.090 HD
ATOM     43  H   UNL     1     -12.126  -0.607  -8.296  0.00  0.00    -0.090 HD
ATOM     44  H   UNL     1     -10.841   0.313  -7.829  0.00  0.00    -0.090 HD
ENDBRANCH  38  41
BRANCH  39  45
ATOM     45  O   UNL     1     -12.143  -2.840  -9.469  0.00  0.00    -0.392 OA
ATOM     46  H   UNL     1     -12.552  -3.420 -10.127  0.00  0.00    +0.210 HD
ENDBRANCH  39  45
ENDBRANCH  34  35
ENDBRANCH  27  34
ENDBRANCH  24  25
ENDBRANCH   4  24
TORSDOF 9
