REMARK  Name = CHEMBL554497
REMARK  4 active torsions:
REMARK  status: ('A' for Active; 'I' for Inactive)
REMARK    1  A    between atoms: C_5  and  S_7
REMARK    2  A    between atoms: S_7  and  N_10
REMARK    3  A    between atoms: C_16  and  C_19
REMARK    4  A    between atoms: N_22  and  C_24
REMARK                            x       y       z     vdW  Elec       q    Type
REMARK                         _______ _______ _______ _____ _____    ______ ____
ROOT
ATOM      1  N   UNL     1       1.780  -2.957  -1.464  0.00  0.00    -0.217 N 
ATOM      2  C   UNL     1       2.941  -3.664  -1.604  0.00  0.00    +0.114 A 
ATOM      3  C   UNL     1       3.180  -3.902  -2.904  0.00  0.00    +0.049 A 
ATOM      4  C   UNL     1       2.081  -3.298  -3.661  0.00  0.00    +0.090 A 
ATOM      5  C   UNL     1       1.226  -2.722  -2.702  0.00  0.00    +0.091 A 
ATOM      6  C   UNL     1       0.075  -2.070  -3.129  0.00  0.00    +0.039 A 
ATOM      7  C   UNL     1      -0.185  -2.019  -4.497  0.00  0.00    +0.005 A 
ATOM      8  C   UNL     1       0.709  -2.618  -5.388  0.00  0.00    +0.120 A 
ATOM      9  N   UNL     1       1.795  -3.221  -4.958  0.00  0.00    -0.253 NA
ENDROOT
BRANCH   7  10
ATOM     10  C   UNL     1      -1.402  -1.336  -5.004  0.00  0.00    +0.021 A 
ATOM     11  C   UNL     1      -2.379  -0.689  -4.223  0.00  0.00    +0.143 A 
ATOM     12  N   UNL     1      -3.291  -0.211  -5.027  0.00  0.00    -0.179 NA
ATOM     13  N   UNL     1      -2.935  -0.531  -6.343  0.00  0.00    -0.268 N 
ATOM     14  C   UNL     1      -1.773  -1.214  -6.311  0.00  0.00    +0.117 A 
BRANCH  13  15
ATOM     15  C   UNL     1      -3.692  -0.178  -7.548  0.00  0.00    +0.104 C 
ATOM     16  C   UNL     1      -3.558  -1.299  -8.582  0.00  0.00    +0.008 C 
ATOM     17  C   UNL     1      -4.284  -0.890  -9.866  0.00  0.00    -0.081 C 
ATOM     18  N   UNL     1      -3.688   0.342 -10.397  0.00  0.00    +0.379 N 
ATOM     19  C   UNL     1      -3.876   1.439  -9.440  0.00  0.00    -0.081 C 
ATOM     20  C   UNL     1      -3.135   1.119  -8.140  0.00  0.00    +0.008 C 
ATOM     21  H   UNL     1      -2.702   0.198 -10.553  0.00  0.00    -0.086 HD
ATOM     22  H   UNL     1      -4.133   0.580 -11.271  0.00  0.00    -0.086 HD
ENDBRANCH  13  15
ENDBRANCH   7  10
BRANCH   1  23
ATOM     23  S   UNL     1       1.133  -2.464  -0.021  0.00  0.00    +0.086 S 
ATOM     24  O   UNL     1       2.031  -2.890   0.994  0.00  0.00    -0.148 OA
ATOM     25  O   UNL     1      -0.235  -2.849  -0.038  0.00  0.00    -0.148 OA
BRANCH  23  30
ATOM     26  C   UNL     1      -0.017   1.396   0.010  0.00  0.00    +0.004 A 
ATOM     27  C   UNL     1       1.122   2.126   0.003  0.00  0.00    +0.033 A 
ATOM     28  C   UNL     1       2.378   1.466  -0.013  0.00  0.00    +0.136 A 
ATOM     29  C   UNL     1       2.398  -0.009  -0.021  0.00  0.00    +0.161 A 
ATOM     30  C   UNL     1       1.161  -0.703  -0.013  0.00  0.00    +0.142 A 
ATOM     31  C   UNL     1       0.002  -0.004   0.002  0.00  0.00    +0.031 A 
ATOM     32  N   UNL     1       3.652  -0.400  -0.035  0.00  0.00    -0.047 NA
ATOM     33  O   UNL     1       4.470   0.757  -0.037  0.00  0.00    -0.242 OA
ATOM     34  N   UNL     1       3.620   1.891  -0.022  0.00  0.00    -0.049 NA
ENDBRANCH  23  30
ENDBRANCH   1  23
TORSDOF 4
