REMARK  Name = CHEMBL255092
REMARK  10 active torsions:
REMARK  status: ('A' for Active; 'I' for Inactive)
REMARK    1  A    between atoms: C_1  and  C_2
REMARK    2  A    between atoms: C_3  and  O_30
REMARK    3  A    between atoms: C_7  and  O_11
REMARK    4  A    between atoms: O_11  and  C_12
REMARK    5  A    between atoms: C_15  and  N_19
REMARK    6  A    between atoms: C_20  and  C_22
REMARK    7  A    between atoms: O_30  and  C_31
REMARK    8  A    between atoms: C_31  and  C_32
REMARK    9  A    between atoms: C_32  and  N_33
REMARK   10  A    between atoms: N_36  and  C_39
REMARK                            x       y       z     vdW  Elec       q    Type
REMARK                         _______ _______ _______ _____ _____    ______ ____
ROOT
ATOM      1  C   UNL     1       0.110   1.666   0.038  0.00  0.00    +0.050 C 
ATOM      2  C   UNL     1       0.082   0.161   0.120  0.00  0.00    +0.023 A 
ATOM      3  C   UNL     1       0.028  -0.730  -0.955  0.00  0.00    +0.144 A 
ATOM      4  C   UNL     1       0.019  -1.996  -0.450  0.00  0.00    +0.159 A 
ATOM      5  N   UNL     1       0.066  -1.930   0.901  0.00  0.00    -0.229 N 
ATOM      6  C   UNL     1       0.110  -0.600   1.274  0.00  0.00    +0.134 A 
ATOM      7  C   UNL     1       0.169  -0.287   2.649  0.00  0.00    +0.248 A 
ATOM      8  N   UNL     1       0.183  -1.268   3.534  0.00  0.00    -0.198 NA
ATOM      9  C   UNL     1       0.143  -2.546   3.162  0.00  0.00    +0.247 A 
ATOM     10  N   UNL     1       0.079  -2.905   1.909  0.00  0.00    -0.155 NA
ENDROOT
BRANCH   7  11
ATOM     11  O   UNL     1       0.212   1.003   3.056  0.00  0.00    -0.433 OA
BRANCH  11  12
ATOM     12  C   UNL     1       0.162   1.253   4.392  0.00  0.00    +0.166 A 
ATOM     13  C   UNL     1      -1.055   1.510   5.005  0.00  0.00    +0.051 A 
ATOM     14  C   UNL     1      -1.107   1.763   6.361  0.00  0.00    +0.027 A 
ATOM     15  C   UNL     1       0.061   1.762   7.113  0.00  0.00    +0.037 A 
ATOM     16  C   UNL     1       1.280   1.505   6.501  0.00  0.00    +0.065 A 
ATOM     17  C   UNL     1       1.331   1.246   5.144  0.00  0.00    +0.167 A 
ATOM     18  F   UNL     1       2.516   0.990   4.548  0.00  0.00    -0.202 F 
BRANCH  15  19
ATOM     19  N   UNL     1       0.008   2.020   8.488  0.00  0.00    -0.281 N 
ATOM     20  C   UNL     1       1.007   2.701   9.085  0.00  0.00    +0.254 C 
ATOM     21  O   UNL     1       1.993   3.016   8.447  0.00  0.00    -0.270 OA
ATOM     22  H   UNL     1      -0.747   1.708   9.012  0.00  0.00    +0.155 HD
BRANCH  20  23
ATOM     23  C   UNL     1       0.903   3.064  10.511  0.00  0.00    +0.107 A 
ATOM     24  C   UNL     1       1.389   2.196  11.495  0.00  0.00    +0.138 A 
ATOM     25  C   UNL     1       1.288   2.544  12.829  0.00  0.00    +0.039 A 
ATOM     26  C   UNL     1       0.709   3.747  13.192  0.00  0.00    +0.006 A 
ATOM     27  C   UNL     1       0.226   4.611  12.225  0.00  0.00    +0.039 A 
ATOM     28  C   UNL     1       0.324   4.280  10.887  0.00  0.00    +0.138 A 
ATOM     29  F   UNL     1      -0.144   5.128   9.944  0.00  0.00    -0.205 F 
ATOM     30  F   UNL     1       1.954   1.021  11.143  0.00  0.00    -0.205 F 
ENDBRANCH  20  23
ENDBRANCH  15  19
ENDBRANCH  11  12
ENDBRANCH   7  11
BRANCH   3  31
ATOM     31  O   UNL     1      -0.010  -0.393  -2.274  0.00  0.00    -0.489 OA
BRANCH  31  32
ATOM     32  C   UNL     1      -0.063  -1.466  -3.216  0.00  0.00    +0.244 C 
BRANCH  32  33
ATOM     33  C   UNL     1      -0.100  -0.897  -4.636  0.00  0.00    +0.125 C 
BRANCH  33  34
ATOM     34  N   UNL     1       1.148  -0.170  -4.904  0.00  0.00    -0.303 NA
ATOM     35  C   UNL     1       0.986   0.757  -6.033  0.00  0.00    +0.066 C 
ATOM     36  C   UNL     1       2.287   1.535  -6.242  0.00  0.00    -0.064 C 
ATOM     37  N   UNL     1       3.382   0.595  -6.512  0.00  0.00    +0.379 N 
ATOM     38  C   UNL     1       3.548  -0.309  -5.366  0.00  0.00    -0.064 C 
ATOM     39  C   UNL     1       2.258  -1.102  -5.150  0.00  0.00    +0.066 C 
ATOM     40  C   UNL     1       4.627   1.343  -6.730  0.00  0.00    -0.096 C 
ATOM     41  H   UNL     1       3.166   0.055  -7.337  0.00  0.00    -0.082 HD
ENDBRANCH  33  34
ENDBRANCH  32  33
ENDBRANCH  31  32
ENDBRANCH   3  31
TORSDOF 8
