REMARK  Name = CHEMBL1098517
REMARK  5 active torsions:
REMARK  status: ('A' for Active; 'I' for Inactive)
REMARK    1  A    between atoms: C_3  and  O_26
REMARK    2  A    between atoms: C_6  and  N_7
REMARK    3  A    between atoms: C_9  and  C_14
REMARK    4  A    between atoms: N_16  and  C_17
REMARK    5  A    between atoms: O_26  and  C_27
REMARK                            x       y       z     vdW  Elec       q    Type
REMARK                         _______ _______ _______ _____ _____    ______ ____
ROOT
ATOM      1  N   UNL     1      -1.133  -0.823  -0.228  0.00  0.00    -0.298 N 
ATOM      2  C   UNL     1      -1.101  -2.188  -0.005  0.00  0.00    +0.154 A 
ATOM      3  C   UNL     1      -2.296  -2.925   0.035  0.00  0.00    +0.166 A 
ATOM      4  N   UNL     1      -2.254  -4.237   0.250  0.00  0.00    -0.245 NA
ATOM      5  C   UNL     1      -1.095  -4.839   0.425  0.00  0.00    +0.131 A 
ATOM      6  C   UNL     1       0.086  -4.111   0.386  0.00  0.00    +0.132 A 
ATOM      7  N   UNL     1       0.060  -2.809   0.168  0.00  0.00    -0.236 NA
ATOM      8  H   UNL     1      -1.983  -0.355  -0.252  0.00  0.00    +0.154 HD
ENDROOT
BRANCH   1  14
ATOM      9  C   UNL     1       0.181   1.183   0.057  0.00  0.00    +0.027 A 
ATOM     10  C   UNL     1       1.359   1.880  -0.131  0.00  0.00    +0.051 A 
ATOM     11  C   UNL     1       2.421   1.283  -0.792  0.00  0.00    +0.164 A 
ATOM     12  C   UNL     1       2.302  -0.017  -1.267  0.00  0.00    +0.167 A 
ATOM     13  C   UNL     1       1.124  -0.715  -1.081  0.00  0.00    +0.065 A 
ATOM     14  C   UNL     1       0.060  -0.117  -0.418  0.00  0.00    +0.035 A 
ATOM     15  F   UNL     1       3.337  -0.598  -1.912  0.00  0.00    -0.202 F 
BRANCH  11  16
ATOM     16  O   UNL     1       3.580   1.971  -0.975  0.00  0.00    -0.452 OA
BRANCH  16  17
ATOM     17  C   UNL     1       3.785   2.564  -2.178  0.00  0.00    +0.141 A 
ATOM     18  C   UNL     1       2.794   2.570  -3.152  0.00  0.00    +0.066 A 
ATOM     19  C   UNL     1       3.041   3.186  -4.366  0.00  0.00    +0.117 A 
ATOM     20  N   UNL     1       4.194   3.768  -4.624  0.00  0.00    -0.237 NA
ATOM     21  C   UNL     1       5.179   3.795  -3.734  0.00  0.00    +0.142 A 
ATOM     22  C   UNL     1       5.001   3.196  -2.475  0.00  0.00    +0.061 A 
ATOM     23  C   UNL     1       6.250   3.405  -1.741  0.00  0.00    +0.032 A 
ATOM     24  C   UNL     1       7.069   4.090  -2.554  0.00  0.00    +0.085 A 
ATOM     25  N   UNL     1       6.447   4.323  -3.752  0.00  0.00    -0.346 N 
ATOM     26  H   UNL     1       6.840   4.800  -4.500  0.00  0.00    +0.167 HD
ENDBRANCH  16  17
ENDBRANCH  11  16
ENDBRANCH   1  14
BRANCH   3  27
ATOM     27  C   UNL     1      -3.594  -2.247  -0.162  0.00  0.00    +0.270 C 
ATOM     28  O   UNL     1      -3.638  -1.036  -0.261  0.00  0.00    -0.268 OA
ATOM     29  N   UNL     1      -4.729  -2.971  -0.230  0.00  0.00    -0.278 N 
ATOM     30  H   UNL     1      -4.704  -3.928  -0.072  0.00  0.00    +0.155 HD
BRANCH  29  31
ATOM     31  C   UNL     1      -5.944  -2.341  -0.529  0.00  0.00    +0.069 A 
ATOM     32  C   UNL     1      -5.960  -1.206  -1.327  0.00  0.00    +0.029 A 
ATOM     33  C   UNL     1      -7.159  -0.586  -1.621  0.00  0.00    +0.040 A 
ATOM     34  C   UNL     1      -8.345  -1.095  -1.120  0.00  0.00    +0.126 A 
ATOM     35  C   UNL     1      -8.333  -2.228  -0.323  0.00  0.00    +0.078 A 
ATOM     36  C   UNL     1      -7.136  -2.856  -0.031  0.00  0.00    +0.147 A 
ATOM     37  F   UNL     1      -7.124  -3.964   0.741  0.00  0.00    -0.203 F 
ATOM     38  F   UNL     1      -9.516  -0.487  -1.409  0.00  0.00    -0.205 F 
ENDBRANCH  29  31
ENDBRANCH   3  27
TORSDOF 5
