REMARK  Name = CHEMBL460791
REMARK  8 active torsions:
REMARK  status: ('A' for Active; 'I' for Inactive)
REMARK    1  A    between atoms: C_1  and  O_2
REMARK    2  A    between atoms: O_2  and  C_3
REMARK    3  A    between atoms: C_6  and  O_15
REMARK    4  A    between atoms: C_12  and  O_13
REMARK    5  A    between atoms: O_13  and  C_14
REMARK    6  A    between atoms: O_15  and  C_16
REMARK    7  A    between atoms: C_26  and  C_28
REMARK    8  A    between atoms: C_28  and  C_29
REMARK                            x       y       z     vdW  Elec       q    Type
REMARK                         _______ _______ _______ _____ _____    ______ ____
ROOT
ATOM      1  C   UNL     1       2.925   2.224  -5.236  0.00  0.00    +0.130 A 
ATOM      2  C   UNL     1       3.427   1.438  -6.269  0.00  0.00    +0.048 A 
ATOM      3  C   UNL     1       4.007   1.991  -7.367  0.00  0.00    +0.032 A 
ATOM      4  C   UNL     1       4.122   3.394  -7.500  0.00  0.00    +0.081 A 
ATOM      5  C   UNL     1       3.604   4.167  -6.436  0.00  0.00    +0.044 A 
ATOM      6  C   UNL     1       3.014   3.605  -5.332  0.00  0.00    +0.063 A 
ATOM      7  S   UNL     1       3.936   5.827  -6.978  0.00  0.00    -0.052 S 
ATOM      8  C   UNL     1       4.715   5.405  -8.530  0.00  0.00    +0.165 A 
ATOM      9  N   UNL     1       4.667   4.094  -8.520  0.00  0.00    -0.225 NA
ATOM     10  N   UNL     1       5.239   6.248  -9.497  0.00  0.00    -0.264 N 
ATOM     11  C   UNL     1       5.792   5.733 -10.613  0.00  0.00    +0.223 C 
ATOM     12  O   UNL     1       5.832   4.531 -10.770  0.00  0.00    -0.275 OA
ATOM     13  H   UNL     1       5.207   7.209  -9.371  0.00  0.00    +0.157 HD
ENDROOT
BRANCH   1  14
ATOM     14  O   UNL     1       2.349   1.645  -4.148  0.00  0.00    -0.455 OA
BRANCH  14  18
ATOM     15  C   UNL     1       0.372  -0.126  -0.888  0.00  0.00    +0.162 A 
ATOM     16  C   UNL     1       1.046   0.447  -1.928  0.00  0.00    +0.063 A 
ATOM     17  C   UNL     1       0.350   0.812  -3.090  0.00  0.00    +0.044 A 
ATOM     18  C   UNL     1       1.015   1.407  -4.186  0.00  0.00    +0.139 A 
ATOM     19  C   UNL     1       0.262   1.740  -5.298  0.00  0.00    +0.064 A 
ATOM     20  C   UNL     1      -1.104   1.484  -5.307  0.00  0.00    +0.086 A 
ATOM     21  N   UNL     1      -1.711   0.931  -4.284  0.00  0.00    -0.360 N 
ATOM     22  C   UNL     1      -1.045   0.584  -3.176  0.00  0.00    +0.054 A 
ATOM     23  C   UNL     1      -1.711  -0.007  -2.090  0.00  0.00    +0.075 A 
ATOM     24  C   UNL     1      -1.008  -0.359  -0.973  0.00  0.00    +0.163 A 
ATOM     25  H   UNL     1      -2.666   0.770  -4.331  0.00  0.00    +0.165 HD
BRANCH  15  27
ATOM     26  C   UNL     1       2.451  -0.217   0.263  0.00  0.00    +0.277 C 
ATOM     27  O   UNL     1       1.046  -0.480   0.238  0.00  0.00    -0.491 OA
ENDBRANCH  15  27
BRANCH  24  28
ATOM     28  O   UNL     1      -1.656  -0.936   0.072  0.00  0.00    -0.491 OA
ATOM     29  C   UNL     1      -3.062  -1.148  -0.072  0.00  0.00    +0.277 C 
ENDBRANCH  24  28
ENDBRANCH  14  18
ENDBRANCH   1  14
BRANCH  11  30
ATOM     30  C   UNL     1       6.361   6.650 -11.664  0.00  0.00    +0.131 C 
BRANCH  30  31
ATOM     31  C   UNL     1       6.915   5.829 -12.800  0.00  0.00    -0.039 A 
ATOM     32  C   UNL     1       8.232   5.412 -12.774  0.00  0.00    +0.004 A 
ATOM     33  C   UNL     1       8.740   4.659 -13.816  0.00  0.00    +0.000 A 
ATOM     34  C   UNL     1       7.930   4.322 -14.884  0.00  0.00    +0.000 A 
ATOM     35  C   UNL     1       6.612   4.739 -14.911  0.00  0.00    +0.000 A 
ATOM     36  C   UNL     1       6.103   5.488 -13.867  0.00  0.00    +0.004 A 
ENDBRANCH  30  31
ENDBRANCH  11  30
TORSDOF 6
