REMARK  Name = CHEMBL515659
REMARK  5 active torsions:
REMARK  status: ('A' for Active; 'I' for Inactive)
REMARK    1  A    between atoms: C_1  and  N_2
REMARK    2  A    between atoms: C_13  and  C_29
REMARK    3  A    between atoms: C_15  and  N_18
REMARK    4  A    between atoms: N_18  and  C_19
REMARK    5  A    between atoms: C_19  and  C_20
REMARK                            x       y       z     vdW  Elec       q    Type
REMARK                         _______ _______ _______ _____ _____    ______ ____
ROOT
ATOM      1  C   UNL     1       0.292   1.448   0.173  0.00  0.00    +0.105 C 
ATOM      2  N   UNL     1       0.160  -0.013   0.085  0.00  0.00    -0.302 NA
ATOM      3  C   UNL     1      -1.251  -0.418   0.154  0.00  0.00    +0.103 C 
ATOM      4  C   UNL     1      -1.361  -1.922  -0.122  0.00  0.00    +0.122 C 
ATOM      5  N   UNL     1      -0.463  -2.633   0.801  0.00  0.00    -0.312 N 
ATOM      6  C   UNL     1       0.938  -2.192   0.888  0.00  0.00    +0.122 C 
ATOM      7  C   UNL     1       0.957  -0.678   1.124  0.00  0.00    +0.103 C 
ATOM      8  C   UNL     1      -0.925  -3.693   1.569  0.00  0.00    +0.140 A 
ATOM      9  C   UNL     1      -2.193  -4.240   1.312  0.00  0.00    +0.155 A 
ATOM     10  N   UNL     1      -2.646  -5.241   2.027  0.00  0.00    -0.250 NA
ATOM     11  C   UNL     1      -1.895  -5.750   3.013  0.00  0.00    +0.092 A 
ATOM     12  C   UNL     1      -2.358  -6.823   3.793  0.00  0.00    +0.042 A 
ATOM     13  C   UNL     1      -1.581  -7.327   4.790  0.00  0.00    +0.059 A 
ATOM     14  C   UNL     1      -0.322  -6.796   5.057  0.00  0.00    +0.037 A 
ATOM     15  C   UNL     1       0.169  -5.743   4.315  0.00  0.00    +0.056 A 
ATOM     16  C   UNL     1      -0.616  -5.201   3.274  0.00  0.00    +0.112 A 
ATOM     17  N   UNL     1      -0.167  -4.183   2.532  0.00  0.00    -0.227 NA
ENDROOT
BRANCH  13  18
ATOM     18  C   UNL     1      -2.091  -8.477   5.620  0.00  0.00    +0.418 C 
ATOM     19  F   UNL     1      -3.367  -8.842   5.176  0.00  0.00    -0.166 F 
ATOM     20  F   UNL     1      -1.223  -9.566   5.490  0.00  0.00    -0.166 F 
ATOM     21  F   UNL     1      -2.157  -8.091   6.963  0.00  0.00    -0.166 F 
ENDBRANCH  13  18
BRANCH  15  22
ATOM     22  N   UNL     1       1.431  -5.218   4.590  0.00  0.00    -0.338 N 
ATOM     23  H   UNL     1       1.773  -4.477   4.065  0.00  0.00    +0.146 HD
BRANCH  22  24
ATOM     24  C   UNL     1       2.241  -5.785   5.671  0.00  0.00    +0.139 C 
BRANCH  24  25
ATOM     25  C   UNL     1       3.550  -5.044   5.760  0.00  0.00    +0.000 A 
ATOM     26  C   UNL     1       4.667  -5.570   5.207  0.00  0.00    +0.007 A 
ATOM     27  C   UNL     1       5.902  -4.912   5.268  0.00  0.00    +0.003 A 
ATOM     28  C   UNL     1       6.044  -3.715   5.884  0.00  0.00    +0.033 A 
ATOM     29  C   UNL     1       4.918  -3.099   6.488  0.00  0.00    +0.135 A 
ATOM     30  C   UNL     1       3.616  -3.789   6.418  0.00  0.00    +0.139 A 
ATOM     31  N   UNL     1       2.726  -3.044   7.031  0.00  0.00    -0.049 NA
ATOM     32  O   UNL     1       3.381  -1.879   7.502  0.00  0.00    -0.242 OA
ATOM     33  N   UNL     1       4.748  -1.972   7.140  0.00  0.00    -0.049 NA
ENDBRANCH  24  25
ENDBRANCH  22  24
ENDBRANCH  15  22
TORSDOF 4
