REMARK  Name = CHEMBL453849
REMARK  9 active torsions:
REMARK  status: ('A' for Active; 'I' for Inactive)
REMARK    1  A    between atoms: C_1  and  C_2
REMARK    2  A    between atoms: C_2  and  C_3
REMARK    3  A    between atoms: C_2  and  C_4
REMARK    4  A    between atoms: C_4  and  C_5
REMARK    5  A    between atoms: C_5  and  N_6
REMARK    6  A    between atoms: C_10  and  C_13
REMARK    7  A    between atoms: N_15  and  C_16
REMARK    8  A    between atoms: C_19  and  O_23
REMARK    9  A    between atoms: O_23  and  C_24
REMARK                            x       y       z     vdW  Elec       q    Type
REMARK                         _______ _______ _______ _____ _____    ______ ____
ROOT
ATOM      1  C   UNL     1       4.622   2.541   6.121  0.00  0.00    +0.037 A 
ATOM      2  C   UNL     1       5.333   2.031   7.200  0.00  0.00    +0.027 A 
ATOM      3  C   UNL     1       6.343   2.777   7.776  0.00  0.00    +0.051 A 
ATOM      4  C   UNL     1       6.648   4.035   7.278  0.00  0.00    +0.164 A 
ATOM      5  C   UNL     1       5.938   4.546   6.199  0.00  0.00    +0.167 A 
ATOM      6  C   UNL     1       4.931   3.798   5.618  0.00  0.00    +0.065 A 
ATOM      7  F   UNL     1       6.235   5.772   5.714  0.00  0.00    -0.202 F 
ENDROOT
BRANCH   1  10
ATOM      8  C   UNL     1       2.853   0.959   6.297  0.00  0.00    +0.253 C 
ATOM      9  O   UNL     1       2.981   0.965   7.507  0.00  0.00    -0.270 OA
ATOM     10  N   UNL     1       3.599   1.785   5.537  0.00  0.00    -0.281 N 
ATOM     11  H   UNL     1       3.426   1.856   4.585  0.00  0.00    +0.155 HD
BRANCH   8  16
ATOM     12  N   UNL     1       0.749  -0.723   3.706  0.00  0.00    -0.315 N 
ATOM     13  C   UNL     1       0.083  -1.637   4.451  0.00  0.00    +0.089 A 
ATOM     14  C   UNL     1       0.288  -1.739   5.789  0.00  0.00    +0.019 A 
ATOM     15  C   UNL     1       1.197  -0.893   6.425  0.00  0.00    +0.020 A 
ATOM     16  C   UNL     1       1.886   0.049   5.664  0.00  0.00    +0.101 A 
ATOM     17  C   UNL     1       1.642   0.113   4.268  0.00  0.00    +0.263 A 
ATOM     18  O   UNL     1       2.236   0.926   3.580  0.00  0.00    -0.267 OA
BRANCH  12  19
ATOM     19  C   UNL     1       0.498  -0.647   2.265  0.00  0.00    +0.125 C 
BRANCH  19  20
ATOM     20  C   UNL     1       1.459  -1.583   1.529  0.00  0.00    +0.024 C 
BRANCH  20  22
ATOM     21  C   UNL     1       1.536  -0.099  -0.479  0.00  0.00    +0.007 C 
ATOM     22  C   UNL     1       1.197  -1.504   0.024  0.00  0.00    -0.016 C 
ATOM     23  C   UNL     1       2.070  -2.530  -0.701  0.00  0.00    +0.007 C 
ENDBRANCH  20  22
ENDBRANCH  19  20
ENDBRANCH  12  19
ENDBRANCH   8  16
ENDBRANCH   1  10
BRANCH   4  24
ATOM     24  O   UNL     1       7.643   4.768   7.846  0.00  0.00    -0.452 OA
BRANCH  24  25
ATOM     25  C   UNL     1       7.296   5.727   8.740  0.00  0.00    +0.141 A 
ATOM     26  C   UNL     1       5.977   5.881   9.150  0.00  0.00    +0.066 A 
ATOM     27  C   UNL     1       5.663   6.872  10.064  0.00  0.00    +0.117 A 
ATOM     28  N   UNL     1       6.583   7.675  10.556  0.00  0.00    -0.237 NA
ATOM     29  C   UNL     1       7.859   7.578  10.203  0.00  0.00    +0.142 A 
ATOM     30  C   UNL     1       8.258   6.591   9.283  0.00  0.00    +0.061 A 
ATOM     31  C   UNL     1       9.704   6.745   9.118  0.00  0.00    +0.032 A 
ATOM     32  C   UNL     1      10.081   7.760   9.911  0.00  0.00    +0.085 A 
ATOM     33  N   UNL     1       8.989   8.274  10.559  0.00  0.00    -0.346 N 
ATOM     34  H   UNL     1       9.011   9.014  11.186  0.00  0.00    +0.167 HD
ENDBRANCH  24  25
ENDBRANCH   4  24
TORSDOF 7
