REMARK  Name = CHEMBL430026
REMARK  10 active torsions:
REMARK  status: ('A' for Active; 'I' for Inactive)
REMARK    1  A    between atoms: C_1  and  C_2
REMARK    2  A    between atoms: C_6  and  C_8
REMARK    3  A    between atoms: N_10  and  C_11
REMARK    4  A    between atoms: C_14  and  O_18
REMARK    5  A    between atoms: O_18  and  C_19
REMARK    6  A    between atoms: C_21  and  C_37
REMARK    7  A    between atoms: C_22  and  O_28
REMARK    8  A    between atoms: O_28  and  C_29
REMARK    9  A    between atoms: C_29  and  C_30
REMARK   10  A    between atoms: C_30  and  N_31
REMARK                            x       y       z     vdW  Elec       q    Type
REMARK                         _______ _______ _______ _____ _____    ______ ____
ROOT
ATOM      1  O   UNL     1      -0.178  -4.684   8.636  0.00  0.00    -0.433 OA
ENDROOT
BRANCH   1   2
ATOM      2  C   UNL     1       0.164  -5.994   8.645  0.00  0.00    +0.248 A 
ATOM      3  C   UNL     1       0.414  -6.658   9.865  0.00  0.00    +0.134 A 
ATOM      4  C   UNL     1       0.394  -6.264  11.190  0.00  0.00    +0.023 A 
ATOM      5  C   UNL     1       0.735  -7.384  11.954  0.00  0.00    +0.144 A 
ATOM      6  C   UNL     1       0.952  -8.423  11.100  0.00  0.00    +0.159 A 
ATOM      7  N   UNL     1       0.761  -7.995   9.830  0.00  0.00    -0.229 N 
ATOM      8  N   UNL     1       0.848  -8.627   8.581  0.00  0.00    -0.155 NA
ATOM      9  C   UNL     1       0.604  -7.953   7.491  0.00  0.00    +0.247 A 
ATOM     10  N   UNL     1       0.263  -6.666   7.512  0.00  0.00    -0.198 NA
ATOM     11  C   UNL     1       0.068  -4.888  11.711  0.00  0.00    +0.050 C 
BRANCH   5  12
ATOM     12  O   UNL     1       0.832  -7.428  13.311  0.00  0.00    -0.489 OA
BRANCH  12  13
ATOM     13  C   UNL     1       1.195  -8.681  13.895  0.00  0.00    +0.244 C 
BRANCH  13  14
ATOM     14  C   UNL     1       1.254  -8.537  15.417  0.00  0.00    +0.125 C 
BRANCH  14  15
ATOM     15  N   UNL     1      -0.084  -8.212  15.930  0.00  0.00    -0.295 NA
ATOM     16  C   UNL     1      -0.004  -7.626  17.275  0.00  0.00    +0.112 C 
ATOM     17  C   UNL     1      -1.412  -7.248  17.746  0.00  0.00    +0.175 C 
ATOM     18  O   UNL     1      -2.248  -8.408  17.709  0.00  0.00    -0.377 OA
ATOM     19  C   UNL     1      -2.349  -9.004  16.413  0.00  0.00    +0.175 C 
ATOM     20  C   UNL     1      -0.951  -9.399  15.929  0.00  0.00    +0.112 C 
ENDBRANCH  14  15
ENDBRANCH  13  14
ENDBRANCH  12  13
ENDBRANCH   5  12
ENDBRANCH   1   2
BRANCH   1  24
ATOM     21  C   UNL     1      -0.581  -2.811   4.977  0.00  0.00    +0.037 A 
ATOM     22  C   UNL     1       0.630  -2.759   5.655  0.00  0.00    +0.027 A 
ATOM     23  C   UNL     1       0.764  -3.386   6.879  0.00  0.00    +0.051 A 
ATOM     24  C   UNL     1      -0.311  -4.067   7.431  0.00  0.00    +0.166 A 
ATOM     25  C   UNL     1      -1.523  -4.120   6.754  0.00  0.00    +0.167 A 
ATOM     26  C   UNL     1      -1.659  -3.487   5.532  0.00  0.00    +0.065 A 
ATOM     27  F   UNL     1      -2.569  -4.784   7.292  0.00  0.00    -0.202 F 
BRANCH  21  30
ATOM     28  C   UNL     1      -1.884  -1.590   3.403  0.00  0.00    +0.251 C 
ATOM     29  O   UNL     1      -2.845  -1.688   4.141  0.00  0.00    -0.270 OA
ATOM     30  N   UNL     1      -0.717  -2.175   3.737  0.00  0.00    -0.281 N 
ATOM     31  H   UNL     1       0.030  -2.156   3.118  0.00  0.00    +0.155 HD
BRANCH  28  37
ATOM     32  C   UNL     1       0.187   0.119  -0.800  0.00  0.00    +0.044 C 
ATOM     33  C   UNL     1      -1.002  -0.004   0.117  0.00  0.00    -0.050 A 
ATOM     34  C   UNL     1      -2.202   0.596  -0.225  0.00  0.00    +0.006 A 
ATOM     35  C   UNL     1      -3.299   0.488   0.609  0.00  0.00    +0.039 A 
ATOM     36  C   UNL     1      -3.204  -0.221   1.793  0.00  0.00    +0.135 A 
ATOM     37  C   UNL     1      -1.995  -0.830   2.142  0.00  0.00    +0.072 A 
ATOM     38  C   UNL     1      -0.894  -0.720   1.290  0.00  0.00    +0.019 A 
ATOM     39  F   UNL     1      -4.276  -0.326   2.608  0.00  0.00    -0.205 F 
ENDBRANCH  28  37
ENDBRANCH  21  30
ENDBRANCH   1  24
TORSDOF 8
