REMARK  Name = CHEMBL518209
REMARK  7 active torsions:
REMARK  status: ('A' for Active; 'I' for Inactive)
REMARK    1  A    between atoms: C_1  and  N_2
REMARK    2  A    between atoms: C_4  and  C_7
REMARK    3  A    between atoms: C_12  and  O_16
REMARK    4  A    between atoms: O_16  and  C_17
REMARK    5  A    between atoms: C_20  and  N_24
REMARK    6  A    between atoms: C_25  and  C_27
REMARK    7  A    between atoms: N_30  and  C_33
REMARK                            x       y       z     vdW  Elec       q    Type
REMARK                         _______ _______ _______ _____ _____    ______ ____
ROOT
ATOM      1  C   UNL     1       0.025  -6.715  -6.574  0.00  0.00    +0.164 A 
ATOM      2  C   UNL     1      -0.001  -8.043  -6.175  0.00  0.00    +0.051 A 
ATOM      3  C   UNL     1      -0.001  -9.049  -7.121  0.00  0.00    +0.027 A 
ATOM      4  C   UNL     1       0.026  -8.732  -8.473  0.00  0.00    +0.036 A 
ATOM      5  C   UNL     1       0.052  -7.403  -8.874  0.00  0.00    +0.065 A 
ATOM      6  C   UNL     1       0.046  -6.396  -7.926  0.00  0.00    +0.167 A 
ATOM      7  F   UNL     1       0.066  -5.102  -8.315  0.00  0.00    -0.202 F 
ENDROOT
BRANCH   4   8
ATOM      8  N   UNL     1       0.027  -9.753  -9.432  0.00  0.00    -0.285 N 
ATOM      9  C   UNL     1      -0.667 -10.887  -9.210  0.00  0.00    +0.229 C 
ATOM     10  O   UNL     1      -1.233 -11.054  -8.150  0.00  0.00    -0.275 OA
ATOM     11  H   UNL     1       0.528  -9.644 -10.256  0.00  0.00    +0.155 HD
BRANCH   9  12
ATOM     12  C   UNL     1      -0.740 -11.947 -10.279  0.00  0.00    +0.163 C 
ATOM     13  C   UNL     1      -1.663 -13.104  -9.831  0.00  0.00    +0.041 C 
ATOM     14  C   UNL     1      -2.348 -13.492 -11.161  0.00  0.00    +0.115 C 
ATOM     15  N   UNL     1      -2.304 -12.283 -11.991  0.00  0.00    -0.271 N 
ATOM     16  C   UNL     1      -1.405 -11.400 -11.522  0.00  0.00    +0.232 C 
ATOM     17  O   UNL     1      -1.163 -10.322 -12.023  0.00  0.00    -0.274 OA
BRANCH  15  18
ATOM     18  C   UNL     1      -3.097 -12.075 -13.126  0.00  0.00    +0.036 A 
ATOM     19  C   UNL     1      -2.893 -10.955 -13.921  0.00  0.00    +0.023 A 
ATOM     20  C   UNL     1      -3.677 -10.753 -15.040  0.00  0.00    +0.002 A 
ATOM     21  C   UNL     1      -4.664 -11.665 -15.369  0.00  0.00    +0.000 A 
ATOM     22  C   UNL     1      -4.869 -12.781 -14.579  0.00  0.00    +0.002 A 
ATOM     23  C   UNL     1      -4.084 -12.992 -13.462  0.00  0.00    +0.023 A 
ENDBRANCH  15  18
ENDBRANCH   9  12
ENDBRANCH   4   8
BRANCH   1  24
ATOM     24  O   UNL     1       0.025  -5.725  -5.642  0.00  0.00    -0.452 OA
BRANCH  24  30
ATOM     25  C   UNL     1      -1.210  -2.459  -2.260  0.00  0.00    +0.040 A 
ATOM     26  C   UNL     1      -2.413  -2.768  -2.809  0.00  0.00    +0.046 A 
ATOM     27  C   UNL     1      -2.488  -3.707  -3.855  0.00  0.00    +0.082 A 
ATOM     28  C   UNL     1      -1.254  -4.265  -4.255  0.00  0.00    +0.080 A 
ATOM     29  S   UNL     1      -0.075  -3.474  -3.191  0.00  0.00    -0.082 S 
ATOM     30  C   UNL     1      -1.171  -5.199  -5.270  0.00  0.00    +0.146 A 
ATOM     31  C   UNL     1      -2.353  -5.586  -5.901  0.00  0.00    +0.067 A 
ATOM     32  C   UNL     1      -3.541  -5.015  -5.479  0.00  0.00    +0.115 A 
ATOM     33  N   UNL     1      -3.591  -4.132  -4.514  0.00  0.00    -0.254 NA
BRANCH  25  37
ATOM     34  C   UNL     1       1.178   0.292   1.166  0.00  0.00    +0.149 C 
ATOM     35  N   UNL     1       0.133  -0.307   0.332  0.00  0.00    -0.341 N 
ATOM     36  C   UNL     1       0.318  -1.232  -0.655  0.00  0.00    +0.113 A 
ATOM     37  C   UNL     1      -0.913  -1.510  -1.166  0.00  0.00    +0.071 A 
ATOM     38  N   UNL     1      -1.813  -0.763  -0.493  0.00  0.00    -0.345 N 
ATOM     39  C   UNL     1      -1.192  -0.049   0.404  0.00  0.00    +0.174 A 
ATOM     40  H   UNL     1      -2.771  -0.760  -0.649  0.00  0.00    +0.167 HD
ENDBRANCH  25  37
ENDBRANCH  24  30
ENDBRANCH   1  24
TORSDOF 6
