REMARK  Name = CHEMBL550857
REMARK  5 active torsions:
REMARK  status: ('A' for Active; 'I' for Inactive)
REMARK    1  A    between atoms: C_1  and  N_2
REMARK    2  A    between atoms: C_8  and  C_10
REMARK    3  A    between atoms: N_16  and  S_17
REMARK    4  A    between atoms: S_17  and  C_20
REMARK    5  A    between atoms: C_25  and  N_26
REMARK                            x       y       z     vdW  Elec       q    Type
REMARK                         _______ _______ _______ _____ _____    ______ ____
ROOT
ATOM      1  C   UNL     1      -0.188  -5.036   2.300  0.00  0.00    +0.057 A 
ATOM      2  C   UNL     1      -0.554  -5.955   3.289  0.00  0.00    +0.044 A 
ATOM      3  C   UNL     1       0.397  -6.318   4.231  0.00  0.00    +0.091 A 
ATOM      4  C   UNL     1       1.687  -5.754   4.160  0.00  0.00    +0.090 A 
ATOM      5  C   UNL     1       2.425  -6.307   5.238  0.00  0.00    +0.049 A 
ATOM      6  C   UNL     1       1.616  -7.149   5.905  0.00  0.00    +0.114 A 
ATOM      7  N   UNL     1       0.385  -7.171   5.314  0.00  0.00    -0.217 N 
ATOM      8  N   UNL     1       1.991  -4.881   3.199  0.00  0.00    -0.253 NA
ATOM      9  C   UNL     1       1.115  -4.522   2.292  0.00  0.00    +0.124 A 
ENDROOT
BRANCH   1  17
ATOM     10  C   UNL     1      -2.465   0.612   0.771  0.00  0.00    -0.096 C 
ATOM     11  N   UNL     1      -1.769  -0.650   0.491  0.00  0.00    +0.380 N 
ATOM     12  C   UNL     1      -2.747  -1.668   0.088  0.00  0.00    -0.060 C 
ATOM     13  C   UNL     1      -2.012  -2.951  -0.315  0.00  0.00    +0.089 C 
ATOM     14  N   UNL     1      -1.138  -3.356   0.797  0.00  0.00    -0.301 N 
ATOM     15  C   UNL     1      -0.237  -2.346   1.374  0.00  0.00    +0.089 C 
ATOM     16  C   UNL     1      -1.056  -1.092   1.697  0.00  0.00    -0.060 C 
ATOM     17  C   UNL     1      -1.162  -4.616   1.274  0.00  0.00    +0.248 C 
ATOM     18  O   UNL     1      -1.987  -5.407   0.859  0.00  0.00    -0.270 OA
ATOM     19  H   UNL     1      -1.106  -0.509  -0.257  0.00  0.00    -0.082 HD
ENDBRANCH   1  17
BRANCH   7  20
ATOM     20  S   UNL     1      -0.909  -8.074   5.815  0.00  0.00    +0.086 S 
ATOM     21  O   UNL     1      -1.415  -8.735   4.663  0.00  0.00    -0.148 OA
ATOM     22  O   UNL     1      -0.487  -8.780   6.974  0.00  0.00    -0.148 OA
BRANCH  20  23
ATOM     23  C   UNL     1      -2.159  -6.947   6.338  0.00  0.00    +0.141 A 
ATOM     24  C   UNL     1      -3.359  -6.880   5.655  0.00  0.00    +0.031 A 
ATOM     25  C   UNL     1      -4.339  -5.996   6.066  0.00  0.00    +0.002 A 
ATOM     26  C   UNL     1      -4.120  -5.180   7.160  0.00  0.00    +0.002 A 
ATOM     27  C   UNL     1      -2.920  -5.248   7.843  0.00  0.00    +0.035 A 
ATOM     28  C   UNL     1      -1.942  -6.135   7.435  0.00  0.00    +0.153 A 
BRANCH  28  29
ATOM     29  N   UNL     1      -0.659  -6.211   8.170  0.00  0.00    +0.058 N 
ATOM     30  O   UNL     1      -0.490  -5.541   9.162  0.00  0.00    -0.126 OA
ATOM     31  O   UNL     1       0.220  -6.944   7.779  0.00  0.00    -0.126 OA
ENDBRANCH  28  29
ENDBRANCH  20  23
ENDBRANCH   7  20
TORSDOF 4
