REMARK  Name = CHEMBL565807
REMARK  9 active torsions:
REMARK  status: ('A' for Active; 'I' for Inactive)
REMARK    1  A    between atoms: C_1  and  C_2
REMARK    2  A    between atoms: C_2  and  N_3
REMARK    3  A    between atoms: C_5  and  C_8
REMARK    4  A    between atoms: C_13  and  O_17
REMARK    5  A    between atoms: O_17  and  C_18
REMARK    6  A    between atoms: C_21  and  N_25
REMARK    7  A    between atoms: C_26  and  C_28
REMARK    8  A    between atoms: C_28  and  C_31
REMARK    9  A    between atoms: N_33  and  C_34
REMARK                            x       y       z     vdW  Elec       q    Type
REMARK                         _______ _______ _______ _____ _____    ______ ____
ROOT
ATOM      1  C   UNL     1      -7.550  -2.082   6.734  0.00  0.00    +0.164 A 
ATOM      2  C   UNL     1      -8.850  -1.602   6.783  0.00  0.00    +0.051 A 
ATOM      3  C   UNL     1      -9.747  -2.127   7.692  0.00  0.00    +0.027 A 
ATOM      4  C   UNL     1      -9.348  -3.136   8.559  0.00  0.00    +0.036 A 
ATOM      5  C   UNL     1      -8.046  -3.617   8.511  0.00  0.00    +0.065 A 
ATOM      6  C   UNL     1      -7.150  -3.095   7.597  0.00  0.00    +0.167 A 
ATOM      7  F   UNL     1      -5.885  -3.567   7.546  0.00  0.00    -0.202 F 
ENDROOT
BRANCH   4   8
ATOM      8  N   UNL     1     -10.258  -3.668   9.482  0.00  0.00    -0.285 N 
ATOM      9  C   UNL     1      -9.866  -3.915  10.748  0.00  0.00    +0.232 C 
ATOM     10  O   UNL     1      -8.701  -3.789  11.058  0.00  0.00    -0.274 OA
ATOM     11  H   UNL     1     -11.169  -3.857   9.210  0.00  0.00    +0.155 HD
BRANCH   9  12
ATOM     12  C   UNL     1     -10.878  -4.349  11.778  0.00  0.00    +0.123 C 
ATOM     13  C   UNL     1     -11.625  -3.252  12.539  0.00  0.00    +0.027 C 
ATOM     14  C   UNL     1     -10.550  -4.078  13.248  0.00  0.00    +0.027 C 
BRANCH  12  15
ATOM     15  C   UNL     1     -11.634  -5.611  11.455  0.00  0.00    +0.232 C 
ATOM     16  O   UNL     1     -11.623  -6.541  12.233  0.00  0.00    -0.274 OA
ATOM     17  N   UNL     1     -12.323  -5.707  10.300  0.00  0.00    -0.285 N 
ATOM     18  H   UNL     1     -12.254  -5.005   9.634  0.00  0.00    +0.155 HD
BRANCH  17  19
ATOM     19  C   UNL     1     -13.139  -6.819  10.063  0.00  0.00    +0.033 A 
ATOM     20  C   UNL     1     -13.865  -7.385  11.103  0.00  0.00    +0.023 A 
ATOM     21  C   UNL     1     -14.669  -8.482  10.865  0.00  0.00    +0.002 A 
ATOM     22  C   UNL     1     -14.751  -9.018   9.593  0.00  0.00    +0.000 A 
ATOM     23  C   UNL     1     -14.029  -8.458   8.555  0.00  0.00    +0.002 A 
ATOM     24  C   UNL     1     -13.228  -7.356   8.785  0.00  0.00    +0.023 A 
ENDBRANCH  17  19
ENDBRANCH  12  15
ENDBRANCH   9  12
ENDBRANCH   4   8
BRANCH   1  25
ATOM     25  O   UNL     1      -6.667  -1.564   5.838  0.00  0.00    -0.452 OA
BRANCH  25  31
ATOM     26  C   UNL     1      -3.966  -0.610   1.911  0.00  0.00    +0.040 A 
ATOM     27  C   UNL     1      -4.502  -1.818   1.601  0.00  0.00    +0.046 A 
ATOM     28  C   UNL     1      -5.370  -2.457   2.507  0.00  0.00    +0.082 A 
ATOM     29  C   UNL     1      -5.614  -1.753   3.707  0.00  0.00    +0.080 A 
ATOM     30  S   UNL     1      -4.646  -0.277   3.528  0.00  0.00    -0.082 S 
ATOM     31  C   UNL     1      -6.444  -2.255   4.691  0.00  0.00    +0.146 A 
ATOM     32  C   UNL     1      -7.045  -3.494   4.470  0.00  0.00    +0.067 A 
ATOM     33  C   UNL     1      -6.779  -4.151   3.281  0.00  0.00    +0.115 A 
ATOM     34  N   UNL     1      -5.988  -3.651   2.365  0.00  0.00    -0.254 NA
BRANCH  26  37
ATOM     35  N   UNL     1      -1.730   1.840   0.445  0.00  0.00    -0.338 N 
ATOM     36  C   UNL     1      -2.530   1.429   1.474  0.00  0.00    +0.113 A 
ATOM     37  C   UNL     1      -3.043   0.222   1.111  0.00  0.00    +0.071 A 
ATOM     38  N   UNL     1      -2.556  -0.079  -0.112  0.00  0.00    -0.345 N 
ATOM     39  C   UNL     1      -1.778   0.887  -0.512  0.00  0.00    +0.174 A 
ATOM     40  H   UNL     1      -2.757  -0.884  -0.614  0.00  0.00    +0.167 HD
BRANCH  35  42
ATOM     41  C   UNL     1      -1.827   4.186  -0.238  0.00  0.00    +0.027 C 
ATOM     42  C   UNL     1      -0.965   3.088   0.387  0.00  0.00    +0.119 C 
ENDBRANCH  35  42
ENDBRANCH  26  37
ENDBRANCH  25  31
ENDBRANCH   1  25
TORSDOF 8
