REMARK  Name = CHEMBL490965
REMARK  7 active torsions:
REMARK  status: ('A' for Active; 'I' for Inactive)
REMARK    1  A    between atoms: C_1  and  N_2
REMARK    2  A    between atoms: C_4  and  C_7
REMARK    3  A    between atoms: C_12  and  O_16
REMARK    4  A    between atoms: O_16  and  C_17
REMARK    5  A    between atoms: C_20  and  N_24
REMARK    6  A    between atoms: C_28  and  C_30
REMARK    7  A    between atoms: C_30  and  C_31
REMARK                            x       y       z     vdW  Elec       q    Type
REMARK                         _______ _______ _______ _____ _____    ______ ____
ROOT
ATOM      1  C   UNL     1       0.116  -6.699  -6.628  0.00  0.00    +0.164 A 
ATOM      2  C   UNL     1       0.073  -8.023  -6.218  0.00  0.00    +0.051 A 
ATOM      3  C   UNL     1       0.057  -9.037  -7.156  0.00  0.00    +0.027 A 
ATOM      4  C   UNL     1       0.083  -8.732  -8.510  0.00  0.00    +0.038 A 
ATOM      5  C   UNL     1       0.126  -7.406  -8.922  0.00  0.00    +0.065 A 
ATOM      6  C   UNL     1       0.137  -6.391  -7.983  0.00  0.00    +0.167 A 
ATOM      7  F   UNL     1       0.174  -5.101  -8.383  0.00  0.00    -0.202 F 
ENDROOT
BRANCH   4   8
ATOM      8  N   UNL     1       0.067  -9.761  -9.461  0.00  0.00    -0.269 N 
ATOM      9  C   UNL     1      -0.642 -10.883  -9.227  0.00  0.00    +0.310 C 
ATOM     10  O   UNL     1      -1.209 -11.033  -8.163  0.00  0.00    -0.252 OA
ATOM     11  N   UNL     1      -0.722 -11.838 -10.174  0.00  0.00    -0.240 N 
ATOM     12  C   UNL     1      -1.431 -12.961  -9.941  0.00  0.00    +0.225 C 
ATOM     13  O   UNL     1      -1.997 -13.110  -8.879  0.00  0.00    -0.275 OA
ATOM     14  H   UNL     1       0.566  -9.665 -10.287  0.00  0.00    +0.156 HD
ATOM     15  H   UNL     1      -0.270 -11.719 -11.024  0.00  0.00    +0.159 HD
BRANCH  12  16
ATOM     16  C   UNL     1      -1.521 -14.029 -10.999  0.00  0.00    +0.131 C 
BRANCH  16  17
ATOM     17  C   UNL     1      -2.365 -15.170 -10.492  0.00  0.00    -0.039 A 
ATOM     18  C   UNL     1      -1.774 -16.215  -9.807  0.00  0.00    +0.004 A 
ATOM     19  C   UNL     1      -2.548 -17.262  -9.341  0.00  0.00    +0.000 A 
ATOM     20  C   UNL     1      -3.913 -17.262  -9.560  0.00  0.00    +0.000 A 
ATOM     21  C   UNL     1      -4.504 -16.216 -10.244  0.00  0.00    +0.000 A 
ATOM     22  C   UNL     1      -3.730 -15.168 -10.706  0.00  0.00    +0.004 A 
ENDBRANCH  16  17
ENDBRANCH  12  16
ENDBRANCH   4   8
BRANCH   1  23
ATOM     23  O   UNL     1       0.133  -5.701  -5.704  0.00  0.00    -0.452 OA
BRANCH  23  29
ATOM     24  C   UNL     1      -1.047  -2.390  -2.347  0.00  0.00    +0.042 A 
ATOM     25  C   UNL     1      -2.255  -2.687  -2.891  0.00  0.00    +0.046 A 
ATOM     26  C   UNL     1      -2.346  -3.633  -3.929  0.00  0.00    +0.082 A 
ATOM     27  C   UNL     1      -1.122  -4.212  -4.327  0.00  0.00    +0.080 A 
ATOM     28  S   UNL     1       0.071  -3.429  -3.272  0.00  0.00    -0.081 S 
ATOM     29  C   UNL     1      -1.054  -5.156  -5.335  0.00  0.00    +0.146 A 
ATOM     30  C   UNL     1      -2.243  -5.530  -5.959  0.00  0.00    +0.067 A 
ATOM     31  C   UNL     1      -3.422  -4.939  -5.539  0.00  0.00    +0.115 A 
ATOM     32  N   UNL     1      -3.457  -4.047  -4.581  0.00  0.00    -0.254 NA
BRANCH  24  36
ATOM     33  C   UNL     1       1.388   0.355   1.051  0.00  0.00    +0.150 C 
ATOM     34  N   UNL     1       0.332  -0.236   0.225  0.00  0.00    -0.339 N 
ATOM     35  C   UNL     1       0.502  -1.172  -0.756  0.00  0.00    +0.115 A 
ATOM     36  C   UNL     1      -0.734  -1.437  -1.261  0.00  0.00    +0.095 A 
ATOM     37  N   UNL     1      -1.622  -0.671  -0.592  0.00  0.00    -0.235 NA
ATOM     38  C   UNL     1      -0.989   0.040   0.297  0.00  0.00    +0.199 A 
ENDBRANCH  24  36
ENDBRANCH  23  29
ENDBRANCH   1  23
TORSDOF 6
