REMARK  Name = CHEMBL460465
REMARK  9 active torsions:
REMARK  status: ('A' for Active; 'I' for Inactive)
REMARK    1  A    between atoms: C_1  and  C_2
REMARK    2  A    between atoms: C_3  and  C_15
REMARK    3  A    between atoms: N_6  and  C_9
REMARK    4  A    between atoms: N_7  and  C_8
REMARK    5  A    between atoms: N_17  and  C_18
REMARK    6  A    between atoms: C_21  and  O_25
REMARK    7  A    between atoms: O_25  and  C_26
REMARK    8  A    between atoms: C_34  and  O_36
REMARK    9  A    between atoms: O_36  and  C_37
REMARK                            x       y       z     vdW  Elec       q    Type
REMARK                         _______ _______ _______ _____ _____    ______ ____
ROOT
ATOM      1  C   UNL     1       1.085  -1.601  -4.670  0.00  0.00    +0.037 A 
ATOM      2  C   UNL     1       1.141  -0.272  -5.068  0.00  0.00    +0.027 A 
ATOM      3  C   UNL     1       1.404   0.045  -6.386  0.00  0.00    +0.051 A 
ATOM      4  C   UNL     1       1.612  -0.964  -7.314  0.00  0.00    +0.164 A 
ATOM      5  C   UNL     1       1.556  -2.295  -6.919  0.00  0.00    +0.167 A 
ATOM      6  C   UNL     1       1.298  -2.612  -5.598  0.00  0.00    +0.065 A 
ATOM      7  F   UNL     1       1.758  -3.278  -7.823  0.00  0.00    -0.202 F 
ENDROOT
BRANCH   1  10
ATOM      8  C   UNL     1      -0.006  -1.144  -2.605  0.00  0.00    +0.255 C 
ATOM      9  O   UNL     1      -0.591  -0.217  -3.133  0.00  0.00    -0.270 OA
ATOM     10  N   UNL     1       0.819  -1.922  -3.334  0.00  0.00    -0.281 N 
ATOM     11  H   UNL     1       1.229  -2.704  -2.932  0.00  0.00    +0.155 HD
BRANCH   8  14
ATOM     12  C   UNL     1      -1.853   0.483  -0.655  0.00  0.00    +0.066 C 
ATOM     13  C   UNL     1      -1.006  -0.713  -0.302  0.00  0.00    +0.050 A 
ATOM     14  C   UNL     1      -0.199  -1.416  -1.176  0.00  0.00    +0.123 A 
ATOM     15  C   UNL     1       0.429  -2.491  -0.391  0.00  0.00    +0.284 A 
ATOM     16  O   UNL     1       1.211  -3.329  -0.800  0.00  0.00    -0.265 OA
ATOM     17  N   UNL     1      -0.032  -2.365   0.870  0.00  0.00    -0.217 N 
ATOM     18  N   UNL     1      -0.904  -1.273   0.918  0.00  0.00    -0.283 N 
ATOM     19  C   UNL     1      -1.606  -0.809   2.117  0.00  0.00    +0.171 C 
BRANCH  17  20
ATOM     20  C   UNL     1       0.309  -3.185   1.951  0.00  0.00    +0.067 A 
ATOM     21  C   UNL     1      -0.684  -3.708   2.768  0.00  0.00    +0.028 A 
ATOM     22  C   UNL     1      -0.344  -4.518   3.834  0.00  0.00    +0.002 A 
ATOM     23  C   UNL     1       0.984  -4.808   4.087  0.00  0.00    +0.000 A 
ATOM     24  C   UNL     1       1.975  -4.289   3.275  0.00  0.00    +0.002 A 
ATOM     25  C   UNL     1       1.641  -3.483   2.205  0.00  0.00    +0.028 A 
ENDBRANCH  17  20
ENDBRANCH   8  14
ENDBRANCH   1  10
BRANCH   4  26
ATOM     26  O   UNL     1       1.870  -0.651  -8.613  0.00  0.00    -0.452 OA
BRANCH  26  27
ATOM     27  C   UNL     1       0.834  -0.661  -9.488  0.00  0.00    +0.139 A 
ATOM     28  C   UNL     1      -0.464  -0.870  -9.054  0.00  0.00    +0.066 A 
ATOM     29  C   UNL     1      -1.504  -0.875  -9.974  0.00  0.00    +0.115 A 
ATOM     30  N   UNL     1      -1.296  -0.685 -11.256  0.00  0.00    -0.255 NA
ATOM     31  C   UNL     1      -0.067  -0.477 -11.743  0.00  0.00    +0.078 A 
ATOM     32  C   UNL     1       1.046  -0.453 -10.869  0.00  0.00    +0.043 A 
ATOM     33  C   UNL     1       2.333  -0.229 -11.382  0.00  0.00    +0.017 A 
ATOM     34  C   UNL     1       2.504  -0.032 -12.717  0.00  0.00    +0.046 A 
ATOM     35  C   UNL     1       1.411  -0.049 -13.589  0.00  0.00    +0.122 A 
ATOM     36  C   UNL     1       0.138  -0.276 -13.118  0.00  0.00    +0.074 A 
BRANCH  35  37
ATOM     37  O   UNL     1       1.609   0.151 -14.918  0.00  0.00    -0.495 OA
ATOM     38  C   UNL     1       2.955   0.371 -15.348  0.00  0.00    +0.277 C 
ENDBRANCH  35  37
ENDBRANCH  26  27
ENDBRANCH   4  26
TORSDOF 6
