REMARK  Name = CHEMBL510112
REMARK  11 active torsions:
REMARK  status: ('A' for Active; 'I' for Inactive)
REMARK    1  A    between atoms: C_1  and  O_2
REMARK    2  A    between atoms: O_2  and  C_3
REMARK    3  A    between atoms: C_6  and  O_15
REMARK    4  A    between atoms: C_12  and  O_13
REMARK    5  A    between atoms: O_13  and  C_14
REMARK    6  A    between atoms: O_15  and  C_16
REMARK    7  A    between atoms: C_19  and  N_22
REMARK    8  A    between atoms: N_22  and  C_23
REMARK    9  A    between atoms: C_23  and  N_25
REMARK   10  A    between atoms: C_26  and  C_28
REMARK   11  A    between atoms: C_28  and  C_29
REMARK                            x       y       z     vdW  Elec       q    Type
REMARK                         _______ _______ _______ _____ _____    ______ ____
ROOT
ATOM      1  C   UNL     1       2.971   2.356  -5.128  0.00  0.00    +0.221 A 
ATOM      2  C   UNL     1       3.438   3.643  -4.892  0.00  0.00    +0.069 A 
ATOM      3  C   UNL     1       4.145   4.297  -5.885  0.00  0.00    +0.030 A 
ATOM      4  C   UNL     1       4.363   3.633  -7.091  0.00  0.00    +0.051 A 
ATOM      5  C   UNL     1       3.866   2.349  -7.254  0.00  0.00    +0.138 A 
ATOM      6  N   UNL     1       3.200   1.754  -6.283  0.00  0.00    -0.219 NA
ENDROOT
BRANCH   4   7
ATOM      7  N   UNL     1       5.073   4.256  -8.125  0.00  0.00    -0.295 N 
ATOM      8  H   UNL     1       4.743   4.211  -9.036  0.00  0.00    +0.154 HD
BRANCH   7   9
ATOM      9  C   UNL     1       6.215   4.919  -7.854  0.00  0.00    +0.141 C 
ATOM     10  S   UNL     1       6.740   5.093  -6.234  0.00  0.00    -0.018 S 
BRANCH   9  11
ATOM     11  N   UNL     1       6.944   5.444  -8.859  0.00  0.00    -0.267 N 
ATOM     12  C   UNL     1       8.086   6.106  -8.588  0.00  0.00    +0.223 C 
ATOM     13  O   UNL     1       8.458   6.230  -7.440  0.00  0.00    -0.275 OA
ATOM     14  H   UNL     1       6.647   5.345  -9.777  0.00  0.00    +0.157 HD
BRANCH  12  15
ATOM     15  C   UNL     1       8.901   6.694  -9.711  0.00  0.00    +0.131 C 
BRANCH  15  16
ATOM     16  C   UNL     1      10.119   7.376  -9.144  0.00  0.00    -0.039 A 
ATOM     17  C   UNL     1      10.062   8.711  -8.790  0.00  0.00    +0.004 A 
ATOM     18  C   UNL     1      11.179   9.337  -8.270  0.00  0.00    +0.000 A 
ATOM     19  C   UNL     1      12.354   8.628  -8.104  0.00  0.00    +0.000 A 
ATOM     20  C   UNL     1      12.411   7.293  -8.457  0.00  0.00    +0.000 A 
ATOM     21  C   UNL     1      11.293   6.666  -8.973  0.00  0.00    +0.004 A 
ENDBRANCH  15  16
ENDBRANCH  12  15
ENDBRANCH   9  11
ENDBRANCH   7   9
ENDBRANCH   4   7
BRANCH   1  22
ATOM     22  O   UNL     1       2.276   1.706  -4.160  0.00  0.00    -0.437 OA
BRANCH  22  26
ATOM     23  C   UNL     1       4.982  -1.445  -3.513  0.00  0.00    +0.162 A 
ATOM     24  C   UNL     1       4.130  -0.398  -3.712  0.00  0.00    +0.063 A 
ATOM     25  C   UNL     1       2.826  -0.640  -4.171  0.00  0.00    +0.044 A 
ATOM     26  C   UNL     1       1.917   0.419  -4.388  0.00  0.00    +0.141 A 
ATOM     27  C   UNL     1       0.649   0.102  -4.842  0.00  0.00    +0.064 A 
ATOM     28  C   UNL     1       0.310  -1.226  -5.067  0.00  0.00    +0.086 A 
ATOM     29  N   UNL     1       1.162  -2.203  -4.862  0.00  0.00    -0.360 N 
ATOM     30  C   UNL     1       2.405  -1.968  -4.424  0.00  0.00    +0.054 A 
ATOM     31  C   UNL     1       3.305  -3.026  -4.209  0.00  0.00    +0.075 A 
ATOM     32  C   UNL     1       4.569  -2.761  -3.768  0.00  0.00    +0.163 A 
ATOM     33  H   UNL     1       0.885  -3.116  -5.031  0.00  0.00    +0.165 HD
BRANCH  23  35
ATOM     34  C   UNL     1       6.605   0.151  -2.827  0.00  0.00    +0.277 C 
ATOM     35  O   UNL     1       6.245  -1.210  -3.068  0.00  0.00    -0.491 OA
ENDBRANCH  23  35
BRANCH  32  36
ATOM     36  O   UNL     1       5.438  -3.787  -3.568  0.00  0.00    -0.491 OA
ATOM     37  C   UNL     1       4.960  -5.105  -3.845  0.00  0.00    +0.277 C 
ENDBRANCH  32  36
ENDBRANCH  22  26
ENDBRANCH   1  22
TORSDOF 9
