REMARK  Name = CHEMBL409867
REMARK  6 active torsions:
REMARK  status: ('A' for Active; 'I' for Inactive)
REMARK    1  A    between atoms: C_1  and  O_2
REMARK    2  A    between atoms: O_2  and  C_3
REMARK    3  A    between atoms: C_8  and  C_9
REMARK    4  A    between atoms: C_12  and  O_16
REMARK    5  A    between atoms: O_16  and  C_17
REMARK    6  A    between atoms: N_29  and  C_30
REMARK                            x       y       z     vdW  Elec       q    Type
REMARK                         _______ _______ _______ _____ _____    ______ ____
ROOT
ATOM      1  C   UNL     1       4.183  -4.746   4.932  0.00  0.00    +0.132 A 
ATOM      2  C   UNL     1       4.574  -3.759   5.827  0.00  0.00    +0.048 A 
ATOM      3  C   UNL     1       5.030  -4.108   7.084  0.00  0.00    +0.031 A 
ATOM      4  C   UNL     1       5.097  -5.443   7.450  0.00  0.00    +0.080 A 
ATOM      5  C   UNL     1       4.704  -6.436   6.557  0.00  0.00    +0.145 A 
ATOM      6  C   UNL     1       4.243  -6.082   5.298  0.00  0.00    +0.093 A 
ATOM      7  O   UNL     1       4.756  -7.748   6.909  0.00  0.00    -0.488 OA
ATOM      8  C   UNL     1       5.611  -8.113   7.995  0.00  0.00    +0.248 C 
ATOM      9  C   UNL     1       5.329  -7.182   9.182  0.00  0.00    +0.156 C 
ATOM     10  N   UNL     1       5.565  -5.800   8.729  0.00  0.00    -0.249 N 
ATOM     11  C   UNL     1       6.206  -4.909   9.511  0.00  0.00    +0.311 C 
ATOM     12  O   UNL     1       6.439  -3.791   9.094  0.00  0.00    -0.252 OA
ATOM     13  N   UNL     1       6.591  -5.258  10.755  0.00  0.00    -0.269 N 
ATOM     14  H   UNL     1       6.317  -6.112  11.125  0.00  0.00    +0.156 HD
ENDROOT
BRANCH  13  15
ATOM     15  C   UNL     1       7.385  -4.389  11.512  0.00  0.00    +0.035 A 
ATOM     16  C   UNL     1       7.365  -3.025  11.252  0.00  0.00    +0.025 A 
ATOM     17  C   UNL     1       8.149  -2.169  12.001  0.00  0.00    +0.022 A 
ATOM     18  C   UNL     1       8.955  -2.670  13.008  0.00  0.00    +0.041 A 
ATOM     19  C   UNL     1       8.977  -4.029  13.268  0.00  0.00    +0.022 A 
ATOM     20  C   UNL     1       8.190  -4.888  12.527  0.00  0.00    +0.025 A 
ATOM     21 CL   UNL     1       9.940  -1.592  13.947  0.00  0.00    -0.084 Cl
ENDBRANCH  13  15
BRANCH   1  22
ATOM     22  O   UNL     1       3.736  -4.401   3.696  0.00  0.00    -0.455 OA
BRANCH  22  29
ATOM     23  C   UNL     1       0.722  -3.164  -0.169  0.00  0.00    +0.134 A 
ATOM     24  C   UNL     1      -0.096  -3.584   0.839  0.00  0.00    +0.074 A 
ATOM     25  C   UNL     1       0.452  -4.000   2.064  0.00  0.00    +0.078 A 
ATOM     26  C   UNL     1       1.859  -3.980   2.241  0.00  0.00    +0.044 A 
ATOM     27  C   UNL     1       2.688  -3.549   1.201  0.00  0.00    +0.030 A 
ATOM     28  C   UNL     1       2.123  -3.147  -0.001  0.00  0.00    +0.079 A 
ATOM     29  C   UNL     1       2.398  -4.402   3.480  0.00  0.00    +0.139 A 
ATOM     30  C   UNL     1       1.517  -4.817   4.464  0.00  0.00    +0.066 A 
ATOM     31  C   UNL     1       0.152  -4.807   4.213  0.00  0.00    +0.115 A 
ATOM     32  N   UNL     1      -0.339  -4.414   3.060  0.00  0.00    -0.255 NA
BRANCH  28  33
ATOM     33  C   UNL     1       2.990  -2.696  -1.105  0.00  0.00    +0.245 C 
ATOM     34  O   UNL     1       2.497  -2.339  -2.158  0.00  0.00    -0.270 OA
ATOM     35  N   UNL     1       4.328  -2.678  -0.947  0.00  0.00    -0.325 N 
ATOM     36  H   UNL     1       4.721  -2.962  -0.107  0.00  0.00    +0.145 HD
ATOM     37  H   UNL     1       4.898  -2.381  -1.674  0.00  0.00    +0.145 HD
ENDBRANCH  28  33
BRANCH  23  39
ATOM     38  C   UNL     1      -1.241  -2.805  -1.457  0.00  0.00    +0.277 C 
ATOM     39  O   UNL     1       0.183  -2.765  -1.348  0.00  0.00    -0.494 OA
ENDBRANCH  23  39
ENDBRANCH  22  29
ENDBRANCH   1  22
TORSDOF 5
