REMARK  Name = CHEMBL556627
REMARK  9 active torsions:
REMARK  status: ('A' for Active; 'I' for Inactive)
REMARK    1  A    between atoms: C_1  and  C_2
REMARK    2  A    between atoms: C_2  and  C_3
REMARK    3  A    between atoms: C_2  and  C_4
REMARK    4  A    between atoms: C_2  and  O_5
REMARK    5  A    between atoms: O_5  and  C_6
REMARK    6  A    between atoms: N_11  and  C_14
REMARK    7  A    between atoms: N_20  and  S_21
REMARK    8  A    between atoms: S_21  and  C_24
REMARK    9  A    between atoms: C_29  and  N_30
REMARK                            x       y       z     vdW  Elec       q    Type
REMARK                         _______ _______ _______ _____ _____    ______ ____
ROOT
ATOM      1  C   UNL     1       4.424  -0.621  -5.672  0.00  0.00    +0.050 A 
ATOM      2  C   UNL     1       5.684  -0.159  -6.031  0.00  0.00    +0.054 A 
ATOM      3  C   UNL     1       6.250  -0.637  -7.208  0.00  0.00    +0.092 A 
ATOM      4  C   UNL     1       5.530  -1.565  -7.984  0.00  0.00    +0.091 A 
ATOM      5  C   UNL     1       6.383  -1.868  -9.137  0.00  0.00    +0.049 A 
ATOM      6  C   UNL     1       7.506  -1.145  -8.999  0.00  0.00    +0.114 A 
ATOM      7  N   UNL     1       7.445  -0.404  -7.851  0.00  0.00    -0.217 N 
ATOM      8  N   UNL     1       4.327  -1.978  -7.599  0.00  0.00    -0.252 NA
ATOM      9  C   UNL     1       3.774  -1.544  -6.488  0.00  0.00    +0.134 A 
ENDROOT
BRANCH   1  15
ATOM     10  C   UNL     1       2.560   0.102  -0.720  0.00  0.00    +0.403 C 
ATOM     11  O   UNL     1       3.174   0.821   0.043  0.00  0.00    -0.226 OA
ATOM     12  N   UNL     1       3.147  -0.335  -1.852  0.00  0.00    -0.264 N 
ATOM     13  C   UNL     1       2.415  -1.200  -2.788  0.00  0.00    +0.130 C 
ATOM     14  C   UNL     1       2.433  -0.548  -4.176  0.00  0.00    +0.124 C 
ATOM     15  N   UNL     1       3.816  -0.167  -4.497  0.00  0.00    -0.326 N 
ATOM     16  C   UNL     1       4.548   0.698  -3.562  0.00  0.00    +0.124 C 
ATOM     17  C   UNL     1       4.527   0.051  -2.177  0.00  0.00    +0.130 C 
BRANCH  10  18
ATOM     18  O   UNL     1       1.295  -0.259  -0.435  0.00  0.00    -0.445 OA
BRANCH  18  20
ATOM     19  C   UNL     1       0.731   1.771   0.750  0.00  0.00    +0.055 C 
ATOM     20  C   UNL     1       0.736   0.241   0.781  0.00  0.00    +0.107 C 
ATOM     21  C   UNL     1       1.578  -0.241   1.965  0.00  0.00    +0.055 C 
ATOM     22  C   UNL     1      -0.698  -0.271   0.933  0.00  0.00    +0.055 C 
ENDBRANCH  18  20
ENDBRANCH  10  18
ENDBRANCH   1  15
BRANCH   7  23
ATOM     23  S   UNL     1       8.630   0.622  -7.316  0.00  0.00    +0.086 S 
ATOM     24  O   UNL     1       8.852   0.308  -5.948  0.00  0.00    -0.148 OA
ATOM     25  O   UNL     1       9.668   0.584  -8.285  0.00  0.00    -0.148 OA
BRANCH  23  26
ATOM     26  C   UNL     1       7.963   2.253  -7.356  0.00  0.00    +0.141 A 
ATOM     27  C   UNL     1       7.775   2.952  -6.178  0.00  0.00    +0.031 A 
ATOM     28  C   UNL     1       7.252   4.231  -6.209  0.00  0.00    +0.002 A 
ATOM     29  C   UNL     1       6.918   4.812  -7.418  0.00  0.00    +0.002 A 
ATOM     30  C   UNL     1       7.108   4.114  -8.596  0.00  0.00    +0.035 A 
ATOM     31  C   UNL     1       7.634   2.836  -8.565  0.00  0.00    +0.153 A 
BRANCH  31  32
ATOM     32  N   UNL     1       7.842   2.090  -9.827  0.00  0.00    +0.058 N 
ATOM     33  O   UNL     1       7.651   2.635 -10.889  0.00  0.00    -0.126 OA
ATOM     34  O   UNL     1       8.202   0.936  -9.795  0.00  0.00    -0.126 OA
ENDBRANCH  31  32
ENDBRANCH  23  26
ENDBRANCH   7  23
TORSDOF 6
