REMARK  Name = CHEMBL465791
REMARK  6 active torsions:
REMARK  status: ('A' for Active; 'I' for Inactive)
REMARK    1  A    between atoms: C_1  and  N_2
REMARK    2  A    between atoms: C_13  and  C_29
REMARK    3  A    between atoms: C_15  and  O_18
REMARK    4  A    between atoms: O_18  and  C_19
REMARK    5  A    between atoms: C_19  and  C_20
REMARK    6  A    between atoms: C_24  and  N_26
REMARK                            x       y       z     vdW  Elec       q    Type
REMARK                         _______ _______ _______ _____ _____    ______ ____
ROOT
ATOM      1  C   UNL     1       0.297   1.447   0.163  0.00  0.00    -0.096 C 
ATOM      2  N   UNL     1       0.155  -0.013   0.076  0.00  0.00    +0.380 N 
ATOM      3  C   UNL     1      -1.259  -0.376   0.234  0.00  0.00    -0.060 C 
ATOM      4  C   UNL     1      -1.423  -1.885   0.030  0.00  0.00    +0.088 C 
ATOM      5  N   UNL     1      -0.511  -2.583   0.950  0.00  0.00    -0.318 N 
ATOM      6  C   UNL     1       0.899  -2.167   0.975  0.00  0.00    +0.088 C 
ATOM      7  C   UNL     1       0.954  -0.644   1.134  0.00  0.00    -0.060 C 
ATOM      8  C   UNL     1      -0.969  -3.603   1.772  0.00  0.00    +0.140 A 
ATOM      9  C   UNL     1      -2.257  -4.131   1.577  0.00  0.00    +0.155 A 
ATOM     10  N   UNL     1      -2.707  -5.095   2.344  0.00  0.00    -0.250 NA
ATOM     11  C   UNL     1      -1.933  -5.584   3.322  0.00  0.00    +0.093 A 
ATOM     12  C   UNL     1      -2.391  -6.617   4.157  0.00  0.00    +0.042 A 
ATOM     13  C   UNL     1      -1.586  -7.098   5.144  0.00  0.00    +0.060 A 
ATOM     14  C   UNL     1      -0.309  -6.581   5.344  0.00  0.00    +0.060 A 
ATOM     15  C   UNL     1       0.172  -5.576   4.553  0.00  0.00    +0.149 A 
ATOM     16  C   UNL     1      -0.635  -5.055   3.521  0.00  0.00    +0.133 A 
ATOM     17  N   UNL     1      -0.190  -4.074   2.726  0.00  0.00    -0.225 NA
ATOM     18  H   UNL     1       0.482  -0.328  -0.824  0.00  0.00    -0.082 HD
ENDROOT
BRANCH  13  19
ATOM     19  C   UNL     1      -2.086  -8.206   6.035  0.00  0.00    +0.418 C 
ATOM     20  F   UNL     1      -3.383  -8.562   5.653  0.00  0.00    -0.166 F 
ATOM     21  F   UNL     1      -1.242  -9.316   5.916  0.00  0.00    -0.166 F 
ATOM     22  F   UNL     1      -2.095  -7.768   7.364  0.00  0.00    -0.166 F 
ENDBRANCH  13  19
BRANCH  15  23
ATOM     23  O   UNL     1       1.420  -5.082   4.760  0.00  0.00    -0.485 OA
BRANCH  23  24
ATOM     24  C   UNL     1       2.178  -5.659   5.825  0.00  0.00    +0.264 C 
BRANCH  24  25
ATOM     25  C   UNL     1       3.526  -4.989   5.903  0.00  0.00    -0.008 A 
ATOM     26  C   UNL     1       4.590  -5.490   5.176  0.00  0.00    +0.007 A 
ATOM     27  C   UNL     1       5.826  -4.875   5.247  0.00  0.00    +0.003 A 
ATOM     28  C   UNL     1       5.998  -3.760   6.046  0.00  0.00    +0.033 A 
ATOM     29  C   UNL     1       4.934  -3.259   6.772  0.00  0.00    +0.127 A 
ATOM     30  C   UNL     1       3.697  -3.871   6.697  0.00  0.00    +0.039 A 
BRANCH  29  31
ATOM     31  N   UNL     1       5.119  -2.065   7.627  0.00  0.00    +0.056 N 
ATOM     32  O   UNL     1       6.200  -1.528   7.691  0.00  0.00    -0.126 OA
ATOM     33  O   UNL     1       4.188  -1.627   8.262  0.00  0.00    -0.126 OA
ENDBRANCH  29  31
ENDBRANCH  24  25
ENDBRANCH  23  24
ENDBRANCH  15  23
TORSDOF 5
