REMARK  Name = CHEMBL462622
REMARK  7 active torsions:
REMARK  status: ('A' for Active; 'I' for Inactive)
REMARK    1  A    between atoms: C_2  and  C_3
REMARK    2  A    between atoms: C_4  and  O_10
REMARK    3  A    between atoms: C_8  and  N_9
REMARK    4  A    between atoms: O_10  and  C_11
REMARK    5  A    between atoms: C_14  and  N_18
REMARK    6  A    between atoms: C_19  and  C_21
REMARK    7  A    between atoms: N_25  and  C_28
REMARK                            x       y       z     vdW  Elec       q    Type
REMARK                         _______ _______ _______ _____ _____    ______ ____
ROOT
ATOM      1  C   UNL     1      -3.473   2.329   0.722  0.00  0.00    +0.164 A 
ATOM      2  C   UNL     1      -3.385   3.660   1.101  0.00  0.00    +0.051 A 
ATOM      3  C   UNL     1      -4.485   4.487   0.984  0.00  0.00    +0.027 A 
ATOM      4  C   UNL     1      -5.681   3.986   0.487  0.00  0.00    +0.037 A 
ATOM      5  C   UNL     1      -5.771   2.653   0.108  0.00  0.00    +0.065 A 
ATOM      6  C   UNL     1      -4.668   1.827   0.220  0.00  0.00    +0.167 A 
ATOM      7  F   UNL     1      -4.753   0.532  -0.154  0.00  0.00    -0.202 F 
ENDROOT
BRANCH   4   8
ATOM      8  N   UNL     1      -6.796   4.824   0.370  0.00  0.00    -0.281 N 
ATOM      9  C   UNL     1      -8.038   4.302   0.405  0.00  0.00    +0.254 C 
ATOM     10  O   UNL     1      -8.192   3.095   0.392  0.00  0.00    -0.270 OA
ATOM     11  H   UNL     1      -6.675   5.781   0.264  0.00  0.00    +0.155 HD
BRANCH   9  12
ATOM     12  C   UNL     1      -9.208   5.191   0.459  0.00  0.00    +0.102 A 
ATOM     13  C   UNL     1     -10.484   4.672   0.673  0.00  0.00    +0.020 A 
ATOM     14  C   UNL     1     -11.570   5.546   0.718  0.00  0.00    +0.019 A 
ATOM     15  C   UNL     1     -11.379   6.880   0.555  0.00  0.00    +0.095 A 
ATOM     16  N   UNL     1     -10.140   7.392   0.346  0.00  0.00    -0.284 N 
ATOM     17  C   UNL     1      -9.057   6.593   0.300  0.00  0.00    +0.268 A 
ATOM     18  O   UNL     1      -7.952   7.072   0.117  0.00  0.00    -0.267 OA
BRANCH  16  19
ATOM     19  C   UNL     1      -9.985   8.774   0.181  0.00  0.00    +0.050 A 
ATOM     20  C   UNL     1      -9.611   9.290  -1.053  0.00  0.00    +0.029 A 
ATOM     21  C   UNL     1      -9.458  10.653  -1.213  0.00  0.00    +0.040 A 
ATOM     22  C   UNL     1      -9.676  11.505  -0.143  0.00  0.00    +0.124 A 
ATOM     23  C   UNL     1     -10.048  10.993   1.088  0.00  0.00    +0.040 A 
ATOM     24  C   UNL     1     -10.208   9.631   1.251  0.00  0.00    +0.029 A 
ATOM     25  F   UNL     1      -9.525  12.839  -0.302  0.00  0.00    -0.205 F 
ENDBRANCH  16  19
ENDBRANCH   9  12
ENDBRANCH   4   8
BRANCH   1  26
ATOM     26  O   UNL     1      -2.390   1.516   0.838  0.00  0.00    -0.452 OA
BRANCH  26  28
ATOM     27  C   UNL     1      -0.555   0.406  -0.242  0.00  0.00    +0.106 A 
ATOM     28  C   UNL     1      -1.742   1.153  -0.298  0.00  0.00    +0.149 A 
ATOM     29  C   UNL     1      -2.237   1.510  -1.549  0.00  0.00    +0.067 A 
ATOM     30  C   UNL     1      -1.554   1.125  -2.683  0.00  0.00    +0.116 A 
ATOM     31  N   UNL     1      -0.439   0.422  -2.606  0.00  0.00    -0.239 NA
ATOM     32  C   UNL     1       0.081   0.060  -1.443  0.00  0.00    +0.135 A 
BRANCH  32  33
ATOM     33  N   UNL     1       1.259  -0.672  -1.413  0.00  0.00    -0.342 N 
ATOM     34  H   UNL     1       1.640  -0.943  -0.563  0.00  0.00    +0.144 HD
ATOM     35  H   UNL     1       1.701  -0.914  -2.242  0.00  0.00    +0.144 HD
ENDBRANCH  32  33
BRANCH  27  37
ATOM     36  C   UNL     1       0.455  -0.314   2.050  0.00  0.00    +0.009 C 
ATOM     37  C   UNL     1       0.000   0.011   1.017  0.00  0.00    -0.063 C 
ENDBRANCH  27  37
ENDBRANCH  26  28
ENDBRANCH   1  26
TORSDOF 7
