REMARK  Name = CHEMBL258185
REMARK  9 active torsions:
REMARK  status: ('A' for Active; 'I' for Inactive)
REMARK    1  A    between atoms: C_1  and  N_2
REMARK    2  A    between atoms: C_6  and  C_7
REMARK    3  A    between atoms: C_12  and  O_16
REMARK    4  A    between atoms: O_16  and  C_17
REMARK    5  A    between atoms: C_20  and  N_24
REMARK    6  A    between atoms: N_24  and  C_25
REMARK    7  A    between atoms: C_25  and  N_27
REMARK    8  A    between atoms: C_28  and  C_30
REMARK    9  A    between atoms: C_30  and  C_31
REMARK                            x       y       z     vdW  Elec       q    Type
REMARK                         _______ _______ _______ _____ _____    ______ ____
ROOT
ATOM      1  C   UNL     1      -0.197   3.590   7.231  0.00  0.00    +0.164 A 
ATOM      2  C   UNL     1       0.360   2.939   8.322  0.00  0.00    +0.051 A 
ATOM      3  C   UNL     1       0.357   3.544   9.564  0.00  0.00    +0.027 A 
ATOM      4  C   UNL     1      -0.204   4.804   9.722  0.00  0.00    +0.036 A 
ATOM      5  C   UNL     1      -0.763   5.457   8.631  0.00  0.00    +0.065 A 
ATOM      6  C   UNL     1      -0.754   4.853   7.387  0.00  0.00    +0.167 A 
ATOM      7  F   UNL     1      -1.293   5.489   6.323  0.00  0.00    -0.202 F 
ENDROOT
BRANCH   4   8
ATOM      8  N   UNL     1      -0.208   5.416  10.981  0.00  0.00    -0.297 N 
ATOM      9  H   UNL     1      -1.016   5.838  11.313  0.00  0.00    +0.154 HD
BRANCH   8  10
ATOM     10  C   UNL     1       0.912   5.420  11.732  0.00  0.00    +0.141 C 
ATOM     11  S   UNL     1       2.303   4.578  11.198  0.00  0.00    -0.018 S 
BRANCH  10  12
ATOM     12  N   UNL     1       0.936   6.088  12.902  0.00  0.00    -0.267 N 
ATOM     13  C   UNL     1       2.055   6.091  13.653  0.00  0.00    +0.223 C 
ATOM     14  O   UNL     1       3.041   5.495  13.275  0.00  0.00    -0.275 OA
ATOM     15  H   UNL     1       0.147   6.565  13.205  0.00  0.00    +0.157 HD
BRANCH  13  16
ATOM     16  C   UNL     1       2.082   6.837  14.962  0.00  0.00    +0.131 C 
BRANCH  16  17
ATOM     17  C   UNL     1       3.439   6.685  15.599  0.00  0.00    -0.039 A 
ATOM     18  C   UNL     1       3.686   5.628  16.456  0.00  0.00    +0.004 A 
ATOM     19  C   UNL     1       4.931   5.488  17.040  0.00  0.00    +0.000 A 
ATOM     20  C   UNL     1       5.929   6.405  16.768  0.00  0.00    +0.000 A 
ATOM     21  C   UNL     1       5.683   7.461  15.911  0.00  0.00    +0.000 A 
ATOM     22  C   UNL     1       4.439   7.599  15.323  0.00  0.00    +0.004 A 
ENDBRANCH  16  17
ENDBRANCH  13  16
ENDBRANCH  10  12
ENDBRANCH   8  10
ENDBRANCH   4   8
BRANCH   1  23
ATOM     23  O   UNL     1      -0.194   2.994   6.009  0.00  0.00    -0.452 OA
BRANCH  23  29
ATOM     24  C   UNL     1       0.958   1.405   1.562  0.00  0.00    +0.038 A 
ATOM     25  C   UNL     1       1.837   2.430   1.735  0.00  0.00    +0.046 A 
ATOM     26  C   UNL     1       1.826   3.169   2.932  0.00  0.00    +0.082 A 
ATOM     27  C   UNL     1       0.865   2.764   3.884  0.00  0.00    +0.080 A 
ATOM     28  S   UNL     1       0.035   1.412   3.089  0.00  0.00    -0.082 S 
ATOM     29  C   UNL     1       0.737   3.397   5.106  0.00  0.00    +0.146 A 
ATOM     30  C   UNL     1       1.591   4.463   5.382  0.00  0.00    +0.067 A 
ATOM     31  C   UNL     1       2.519   4.829   4.422  0.00  0.00    +0.115 A 
ATOM     32  N   UNL     1       2.619   4.211   3.272  0.00  0.00    -0.254 NA
BRANCH  24  38
ATOM     33  C   UNL     1      -1.234  -0.749   1.194  0.00  0.00    +0.149 C 
ATOM     34  N   UNL     1      -0.169  -0.440   0.237  0.00  0.00    -0.349 N 
ATOM     35  C   UNL     1       0.019  -1.050  -0.968  0.00  0.00    +0.086 A 
ATOM     36  C   UNL     1       1.099  -0.498  -1.565  0.00  0.00    +0.020 A 
ATOM     37  C   UNL     1       1.603   0.490  -0.706  0.00  0.00    +0.028 A 
ATOM     38  C   UNL     1       0.803   0.515   0.400  0.00  0.00    +0.056 A 
ENDBRANCH  24  38
ENDBRANCH  23  29
ENDBRANCH   1  23
TORSDOF 8
