REMARK  Name = CHEMBL1099174
REMARK  7 active torsions:
REMARK  status: ('A' for Active; 'I' for Inactive)
REMARK    1  A    between atoms: C_1  and  C_2
REMARK    2  A    between atoms: C_7  and  N_8
REMARK    3  A    between atoms: C_9  and  C_11
REMARK    4  A    between atoms: C_16  and  N_17
REMARK    5  A    between atoms: N_17  and  C_18
REMARK    6  A    between atoms: C_21  and  O_25
REMARK    7  A    between atoms: O_25  and  C_26
REMARK                            x       y       z     vdW  Elec       q    Type
REMARK                         _______ _______ _______ _____ _____    ______ ____
ROOT
ATOM      1  N   UNL     1      -0.019  -2.070   6.067  0.00  0.00    -0.299 N 
ATOM      2  H   UNL     1      -0.222  -2.566   5.258  0.00  0.00    +0.154 HD
ENDROOT
BRANCH   1   3
ATOM      3  C   UNL     1       0.105  -2.743   7.288  0.00  0.00    +0.035 A 
ATOM      4  C   UNL     1      -0.338  -2.142   8.460  0.00  0.00    +0.027 A 
ATOM      5  C   UNL     1      -0.215  -2.806   9.665  0.00  0.00    +0.051 A 
ATOM      6  C   UNL     1       0.349  -4.072   9.706  0.00  0.00    +0.164 A 
ATOM      7  C   UNL     1       0.792  -4.674   8.535  0.00  0.00    +0.167 A 
ATOM      8  C   UNL     1       0.665  -4.013   7.328  0.00  0.00    +0.065 A 
ATOM      9  F   UNL     1       1.342  -5.907   8.576  0.00  0.00    -0.202 F 
BRANCH   6  10
ATOM     10  O   UNL     1       0.469  -4.724  10.894  0.00  0.00    -0.452 OA
BRANCH  10  11
ATOM     11  C   UNL     1       1.707  -4.834  11.438  0.00  0.00    +0.141 A 
ATOM     12  C   UNL     1       2.801  -4.200  10.861  0.00  0.00    +0.066 A 
ATOM     13  C   UNL     1       4.048  -4.336  11.446  0.00  0.00    +0.117 A 
ATOM     14  N   UNL     1       4.226  -5.052  12.537  0.00  0.00    -0.237 NA
ATOM     15  C   UNL     1       3.220  -5.680  13.133  0.00  0.00    +0.142 A 
ATOM     16  C   UNL     1       1.921  -5.585  12.602  0.00  0.00    +0.061 A 
ATOM     17  C   UNL     1       1.058  -6.371  13.484  0.00  0.00    +0.032 A 
ATOM     18  C   UNL     1       1.842  -6.868  14.454  0.00  0.00    +0.085 A 
ATOM     19  N   UNL     1       3.138  -6.473  14.253  0.00  0.00    -0.346 N 
ATOM     20  H   UNL     1       3.886  -6.707  14.824  0.00  0.00    +0.167 HD
ENDBRANCH  10  11
ENDBRANCH   6  10
ENDBRANCH   1   3
BRANCH   1  26
ATOM     21  C   UNL     1       0.179  -0.046   4.768  0.00  0.00    +0.077 A 
ATOM     22  C   UNL     1       0.343   1.344   4.739  0.00  0.00    +0.018 A 
ATOM     23  C   UNL     1       0.473   2.016   5.942  0.00  0.00    +0.021 A 
ATOM     24  C   UNL     1       0.438   1.303   7.128  0.00  0.00    +0.113 A 
ATOM     25  N   UNL     1       0.283  -0.006   7.134  0.00  0.00    -0.239 NA
ATOM     26  C   UNL     1       0.148  -0.698   6.013  0.00  0.00    +0.135 A 
BRANCH  21  28
ATOM     27  N   UNL     1       0.213  -0.199   2.329  0.00  0.00    -0.281 N 
ATOM     28  C   UNL     1       0.036  -0.811   3.516  0.00  0.00    +0.252 C 
ATOM     29  O   UNL     1      -0.241  -1.994   3.555  0.00  0.00    -0.270 OA
ATOM     30  H   UNL     1       0.460   0.739   2.298  0.00  0.00    +0.155 HD
BRANCH  27  37
ATOM     31  C   UNL     1      -0.757   1.197   0.047  0.00  0.00    +0.045 C 
ATOM     32  C   UNL     1      -0.431  -0.274   0.003  0.00  0.00    -0.029 A 
ATOM     33  C   UNL     1      -0.595  -0.983  -1.171  0.00  0.00    +0.005 A 
ATOM     34  C   UNL     1      -0.295  -2.332  -1.213  0.00  0.00    +0.000 A 
ATOM     35  C   UNL     1       0.169  -2.976  -0.080  0.00  0.00    +0.002 A 
ATOM     36  C   UNL     1       0.335  -2.272   1.097  0.00  0.00    +0.023 A 
ATOM     37  C   UNL     1       0.041  -0.916   1.140  0.00  0.00    +0.037 A 
ENDBRANCH  27  37
ENDBRANCH  21  28
ENDBRANCH   1  26
TORSDOF 6
