REMARK  Name = CHEMBL602704
REMARK  10 active torsions:
REMARK  status: ('A' for Active; 'I' for Inactive)
REMARK    1  A    between atoms: C_1  and  N_2
REMARK    2  A    between atoms: C_4  and  C_7
REMARK    3  A    between atoms: C_12  and  O_16
REMARK    4  A    between atoms: O_16  and  C_17
REMARK    5  A    between atoms: C_20  and  N_24
REMARK    6  A    between atoms: N_24  and  C_25
REMARK    7  A    between atoms: C_25  and  C_26
REMARK    8  A    between atoms: C_25  and  C_37
REMARK    9  A    between atoms: C_26  and  C_27
REMARK   10  A    between atoms: N_29  and  C_30
REMARK                            x       y       z     vdW  Elec       q    Type
REMARK                         _______ _______ _______ _____ _____    ______ ____
ROOT
ATOM      1  C   UNL     1       0.194  -7.589  -5.987  0.00  0.00    +0.164 A 
ATOM      2  C   UNL     1       0.114  -8.956  -5.769  0.00  0.00    +0.051 A 
ATOM      3  C   UNL     1       0.087  -9.827  -6.841  0.00  0.00    +0.027 A 
ATOM      4  C   UNL     1       0.143  -9.334  -8.139  0.00  0.00    +0.031 A 
ATOM      5  C   UNL     1       0.224  -7.965  -8.358  0.00  0.00    +0.065 A 
ATOM      6  C   UNL     1       0.243  -7.094  -7.284  0.00  0.00    +0.167 A 
ATOM      7  F   UNL     1       0.317  -5.761  -7.496  0.00  0.00    -0.202 F 
ENDROOT
BRANCH   4   8
ATOM      8  N   UNL     1       0.117 -10.216  -9.224  0.00  0.00    -0.333 N 
ATOM      9  H   UNL     1       0.061 -11.172  -9.071  0.00  0.00    +0.147 HD
BRANCH   8  10
ATOM     10  C   UNL     1       0.175  -9.695 -10.592  0.00  0.00    +0.184 C 
BRANCH  10  11
ATOM     11  C   UNL     1       1.636  -9.476 -10.993  0.00  0.00    +0.408 C 
ATOM     12  F   UNL     1       2.325 -10.692 -10.927  0.00  0.00    -0.169 F 
ATOM     13  F   UNL     1       1.692  -8.979 -12.300  0.00  0.00    -0.169 F 
ATOM     14  F   UNL     1       2.226  -8.557 -10.119  0.00  0.00    -0.169 F 
ENDBRANCH  10  11
BRANCH  10  15
ATOM     15  C   UNL     1      -0.470 -10.700 -11.548  0.00  0.00    +0.127 C 
BRANCH  15  16
ATOM     16  C   UNL     1      -1.938 -10.824 -11.231  0.00  0.00    +0.219 C 
ATOM     17  O   UNL     1      -2.421 -10.172 -10.329  0.00  0.00    -0.275 OA
ATOM     18  N   UNL     1      -2.715 -11.659 -11.949  0.00  0.00    -0.285 N 
ATOM     19  H   UNL     1      -2.317 -12.234 -12.621  0.00  0.00    +0.155 HD
BRANCH  18  20
ATOM     20  C   UNL     1      -4.097 -11.696 -11.725  0.00  0.00    +0.034 A 
ATOM     21  C   UNL     1      -4.791 -12.891 -11.856  0.00  0.00    +0.026 A 
ATOM     22  C   UNL     1      -6.154 -12.926 -11.635  0.00  0.00    +0.040 A 
ATOM     23  C   UNL     1      -6.828 -11.769 -11.283  0.00  0.00    +0.124 A 
ATOM     24  C   UNL     1      -6.138 -10.575 -11.152  0.00  0.00    +0.040 A 
ATOM     25  C   UNL     1      -4.774 -10.538 -11.367  0.00  0.00    +0.026 A 
ATOM     26  F   UNL     1      -8.162 -11.804 -11.068  0.00  0.00    -0.205 F 
ENDBRANCH  18  20
ENDBRANCH  15  16
ENDBRANCH  10  15
ENDBRANCH   8  10
ENDBRANCH   4   8
BRANCH   1  27
ATOM     27  O   UNL     1       0.220  -6.732  -4.931  0.00  0.00    -0.452 OA
BRANCH  27  33
ATOM     28  C   UNL     1      -0.935  -3.843  -1.196  0.00  0.00    +0.040 A 
ATOM     29  C   UNL     1      -2.132  -3.994  -1.821  0.00  0.00    +0.046 A 
ATOM     30  C   UNL     1      -2.225  -4.784  -2.982  0.00  0.00    +0.082 A 
ATOM     31  C   UNL     1      -1.016  -5.373  -3.410  0.00  0.00    +0.080 A 
ATOM     32  S   UNL     1       0.167  -4.811  -2.213  0.00  0.00    -0.082 S 
ATOM     33  C   UNL     1      -0.952  -6.175  -4.534  0.00  0.00    +0.146 A 
ATOM     34  C   UNL     1      -2.130  -6.392  -5.248  0.00  0.00    +0.067 A 
ATOM     35  C   UNL     1      -3.294  -5.796  -4.795  0.00  0.00    +0.115 A 
ATOM     36  N   UNL     1      -3.325  -5.041  -3.726  0.00  0.00    -0.254 NA
BRANCH  28  40
ATOM     37  C   UNL     1       1.487  -1.730   2.634  0.00  0.00    +0.149 C 
ATOM     38  N   UNL     1       0.440  -2.141   1.696  0.00  0.00    -0.341 N 
ATOM     39  C   UNL     1       0.602  -2.944   0.603  0.00  0.00    +0.113 A 
ATOM     40  C   UNL     1      -0.622  -3.065   0.021  0.00  0.00    +0.071 A 
ATOM     41  N   UNL     1      -1.499  -2.348   0.754  0.00  0.00    -0.345 N 
ATOM     42  C   UNL     1      -0.872  -1.799   1.756  0.00  0.00    +0.174 A 
ATOM     43  H   UNL     1      -2.446  -2.257   0.567  0.00  0.00    +0.167 HD
ENDBRANCH  28  40
ENDBRANCH  27  33
ENDBRANCH   1  27
TORSDOF 9
