REMARK  Name = CHEMBL518511
REMARK  8 active torsions:
REMARK  status: ('A' for Active; 'I' for Inactive)
REMARK    1  A    between atoms: C_1  and  O_2
REMARK    2  A    between atoms: O_2  and  C_3
REMARK    3  A    between atoms: C_6  and  O_15
REMARK    4  A    between atoms: C_12  and  O_13
REMARK    5  A    between atoms: O_13  and  C_14
REMARK    6  A    between atoms: O_15  and  C_16
REMARK    7  A    between atoms: C_23  and  C_25
REMARK    8  A    between atoms: C_25  and  C_26
REMARK                            x       y       z     vdW  Elec       q    Type
REMARK                         _______ _______ _______ _____ _____    ______ ____
ROOT
ATOM      1  C   UNL     1      -5.956   2.252   0.039  0.00  0.00    +0.147 A 
ATOM      2  C   UNL     1      -5.914   3.642  -0.037  0.00  0.00    +0.051 A 
ATOM      3  C   UNL     1      -7.111   4.335  -0.069  0.00  0.00    +0.047 A 
ATOM      4  C   UNL     1      -8.306   3.627  -0.024  0.00  0.00    +0.125 A 
ATOM      5  N   UNL     1      -8.307   2.306   0.048  0.00  0.00    -0.236 NA
ATOM      6  C   UNL     1      -7.185   1.613   0.074  0.00  0.00    +0.159 A 
ATOM      7  N   UNL     1      -9.519   4.317  -0.054  0.00  0.00    -0.270 N 
ATOM      8  C   UNL     1     -10.679   3.648   0.098  0.00  0.00    +0.223 C 
ATOM      9  O   UNL     1     -10.676   2.437   0.163  0.00  0.00    -0.275 OA
ATOM     10  H   UNL     1      -9.527   5.278  -0.185  0.00  0.00    +0.156 HD
ENDROOT
BRANCH   1  11
ATOM     11  O   UNL     1      -4.804   1.530   0.072  0.00  0.00    -0.454 OA
BRANCH  11  15
ATOM     12  C   UNL     1      -1.143  -0.528  -0.116  0.00  0.00    +0.162 A 
ATOM     13  C   UNL     1      -2.324   0.149  -0.019  0.00  0.00    +0.063 A 
ATOM     14  C   UNL     1      -3.180   0.214  -1.129  0.00  0.00    +0.046 A 
ATOM     15  C   UNL     1      -4.410   0.906  -1.066  0.00  0.00    +0.139 A 
ATOM     16  C   UNL     1      -5.202   0.928  -2.201  0.00  0.00    +0.066 A 
ATOM     17  C   UNL     1      -4.772   0.279  -3.352  0.00  0.00    +0.115 A 
ATOM     18  N   UNL     1      -3.628  -0.361  -3.400  0.00  0.00    -0.255 NA
ATOM     19  C   UNL     1      -2.813  -0.422  -2.340  0.00  0.00    +0.078 A 
ATOM     20  C   UNL     1      -1.591  -1.111  -2.408  0.00  0.00    +0.077 A 
ATOM     21  C   UNL     1      -0.774  -1.155  -1.315  0.00  0.00    +0.164 A 
BRANCH  12  23
ATOM     22  C   UNL     1      -0.745   0.067   2.152  0.00  0.00    +0.277 C 
ATOM     23  O   UNL     1      -0.313  -0.591   0.959  0.00  0.00    -0.491 OA
ENDBRANCH  12  23
BRANCH  21  24
ATOM     24  O   UNL     1       0.410  -1.818  -1.389  0.00  0.00    -0.491 OA
ATOM     25  C   UNL     1       0.731  -2.436  -2.637  0.00  0.00    +0.277 C 
ENDBRANCH  21  24
ENDBRANCH  11  15
ENDBRANCH   1  11
BRANCH   8  26
ATOM     26  C   UNL     1     -11.979   4.405   0.187  0.00  0.00    +0.131 C 
BRANCH  26  27
ATOM     27  C   UNL     1     -13.117   3.431   0.353  0.00  0.00    -0.039 A 
ATOM     28  C   UNL     1     -13.754   2.916  -0.760  0.00  0.00    +0.004 A 
ATOM     29  C   UNL     1     -14.798   2.022  -0.607  0.00  0.00    +0.000 A 
ATOM     30  C   UNL     1     -15.204   1.644   0.659  0.00  0.00    +0.000 A 
ATOM     31  C   UNL     1     -14.566   2.159   1.772  0.00  0.00    +0.000 A 
ATOM     32  C   UNL     1     -13.520   3.049   1.619  0.00  0.00    +0.004 A 
ENDBRANCH  26  27
ENDBRANCH   8  26
TORSDOF 6
