REMARK  Name = CHEMBL1097142
REMARK  6 active torsions:
REMARK  status: ('A' for Active; 'I' for Inactive)
REMARK    1  A    between atoms: C_3  and  C_23
REMARK    2  A    between atoms: N_7  and  C_8
REMARK    3  A    between atoms: C_11  and  O_15
REMARK    4  A    between atoms: O_15  and  C_16
REMARK    5  A    between atoms: C_20  and  N_22
REMARK    6  A    between atoms: N_25  and  C_26
REMARK                            x       y       z     vdW  Elec       q    Type
REMARK                         _______ _______ _______ _____ _____    ______ ____
ROOT
ATOM      1  C   UNL     1       0.205   1.761   2.499  0.00  0.00    +0.021 A 
ATOM      2  C   UNL     1       1.185   2.401   1.761  0.00  0.00    +0.018 A 
ATOM      3  C   UNL     1       2.061   1.619   1.000  0.00  0.00    +0.077 A 
ATOM      4  C   UNL     1       1.910   0.221   1.018  0.00  0.00    +0.135 A 
ATOM      5  N   UNL     1       0.954  -0.339   1.743  0.00  0.00    -0.239 NA
ATOM      6  C   UNL     1       0.119   0.381   2.466  0.00  0.00    +0.113 A 
ATOM      7  N   UNL     1       2.765  -0.573   0.275  0.00  0.00    -0.299 N 
ATOM      8  H   UNL     1       3.526  -0.176  -0.178  0.00  0.00    +0.154 HD
ENDROOT
BRANCH   7   9
ATOM      9  C   UNL     1       2.532  -1.950   0.175  0.00  0.00    +0.035 A 
ATOM     10  C   UNL     1       1.231  -2.433   0.137  0.00  0.00    +0.027 A 
ATOM     11  C   UNL     1       1.001  -3.791   0.039  0.00  0.00    +0.051 A 
ATOM     12  C   UNL     1       2.069  -4.674  -0.021  0.00  0.00    +0.164 A 
ATOM     13  C   UNL     1       3.372  -4.192   0.017  0.00  0.00    +0.167 A 
ATOM     14  C   UNL     1       3.603  -2.832   0.109  0.00  0.00    +0.065 A 
ATOM     15  F   UNL     1       4.412  -5.052  -0.041  0.00  0.00    -0.202 F 
BRANCH  12  16
ATOM     16  O   UNL     1       1.841  -6.011  -0.118  0.00  0.00    -0.453 OA
BRANCH  16  17
ATOM     17  C   UNL     1       0.556  -6.444  -0.067  0.00  0.00    +0.133 A 
ATOM     18  C   UNL     1      -0.282  -6.327  -1.175  0.00  0.00    +0.064 A 
ATOM     19  C   UNL     1      -1.581  -6.778  -1.088  0.00  0.00    +0.088 A 
ATOM     20  N   UNL     1      -2.040  -7.315   0.028  0.00  0.00    -0.350 N 
ATOM     21  C   UNL     1      -1.278  -7.444   1.104  0.00  0.00    +0.097 A 
ATOM     22  C   UNL     1       0.044  -7.020   1.091  0.00  0.00    +0.087 A 
ATOM     23  H   UNL     1      -2.959  -7.623   0.060  0.00  0.00    +0.166 HD
BRANCH  21  24
ATOM     24  N   UNL     1      -1.805  -8.015   2.256  0.00  0.00    -0.345 N 
ATOM     25  H   UNL     1      -2.727  -8.317   2.270  0.00  0.00    +0.144 HD
ATOM     26  H   UNL     1      -1.252  -8.112   3.047  0.00  0.00    +0.144 HD
ENDBRANCH  21  24
ENDBRANCH  16  17
ENDBRANCH  12  16
ENDBRANCH   7   9
BRANCH   3  27
ATOM     27  C   UNL     1       3.123   2.249   0.195  0.00  0.00    +0.252 C 
ATOM     28  O   UNL     1       3.942   1.557  -0.380  0.00  0.00    -0.270 OA
ATOM     29  N   UNL     1       3.187   3.591   0.096  0.00  0.00    -0.279 N 
ATOM     30  H   UNL     1       2.580   4.145   0.612  0.00  0.00    +0.155 HD
BRANCH  29  31
ATOM     31  C   UNL     1       4.128   4.187  -0.753  0.00  0.00    +0.069 A 
ATOM     32  C   UNL     1       4.549   3.525  -1.898  0.00  0.00    +0.029 A 
ATOM     33  C   UNL     1       5.478   4.114  -2.734  0.00  0.00    +0.040 A 
ATOM     34  C   UNL     1       5.990   5.364  -2.432  0.00  0.00    +0.126 A 
ATOM     35  C   UNL     1       5.572   6.028  -1.291  0.00  0.00    +0.078 A 
ATOM     36  C   UNL     1       4.638   5.445  -0.453  0.00  0.00    +0.147 A 
ATOM     37  F   UNL     1       4.226   6.095   0.657  0.00  0.00    -0.203 F 
ATOM     38  F   UNL     1       6.898   5.938  -3.251  0.00  0.00    -0.205 F 
ENDBRANCH  29  31
ENDBRANCH   3  27
TORSDOF 6
