REMARK  Name = CHEMBL462707
REMARK  6 active torsions:
REMARK  status: ('A' for Active; 'I' for Inactive)
REMARK    1  A    between atoms: C_1  and  N_2
REMARK    2  A    between atoms: C_13  and  C_31
REMARK    3  A    between atoms: C_15  and  N_18
REMARK    4  A    between atoms: N_18  and  S_19
REMARK    5  A    between atoms: S_19  and  C_22
REMARK    6  A    between atoms: C_26  and  N_28
REMARK                            x       y       z     vdW  Elec       q    Type
REMARK                         _______ _______ _______ _____ _____    ______ ____
ROOT
ATOM      1  C   UNL     1       0.292   1.448   0.173  0.00  0.00    +0.105 C 
ATOM      2  N   UNL     1       0.160  -0.013   0.085  0.00  0.00    -0.302 NA
ATOM      3  C   UNL     1      -1.251  -0.418   0.154  0.00  0.00    +0.103 C 
ATOM      4  C   UNL     1      -1.361  -1.922  -0.122  0.00  0.00    +0.122 C 
ATOM      5  N   UNL     1      -0.463  -2.633   0.801  0.00  0.00    -0.312 N 
ATOM      6  C   UNL     1       0.938  -2.192   0.888  0.00  0.00    +0.122 C 
ATOM      7  C   UNL     1       0.957  -0.678   1.124  0.00  0.00    +0.103 C 
ATOM      8  C   UNL     1      -0.925  -3.693   1.569  0.00  0.00    +0.140 A 
ATOM      9  C   UNL     1      -2.193  -4.240   1.312  0.00  0.00    +0.155 A 
ATOM     10  N   UNL     1      -2.646  -5.241   2.027  0.00  0.00    -0.250 NA
ATOM     11  C   UNL     1      -1.895  -5.750   3.013  0.00  0.00    +0.092 A 
ATOM     12  C   UNL     1      -2.358  -6.823   3.793  0.00  0.00    +0.042 A 
ATOM     13  C   UNL     1      -1.581  -7.327   4.790  0.00  0.00    +0.059 A 
ATOM     14  C   UNL     1      -0.322  -6.796   5.057  0.00  0.00    +0.041 A 
ATOM     15  C   UNL     1       0.169  -5.743   4.315  0.00  0.00    +0.102 A 
ATOM     16  C   UNL     1      -0.616  -5.201   3.274  0.00  0.00    +0.116 A 
ATOM     17  N   UNL     1      -0.167  -4.183   2.532  0.00  0.00    -0.227 NA
ENDROOT
BRANCH  13  18
ATOM     18  C   UNL     1      -2.091  -8.477   5.620  0.00  0.00    +0.418 C 
ATOM     19  F   UNL     1      -3.367  -8.842   5.176  0.00  0.00    -0.166 F 
ATOM     20  F   UNL     1      -1.223  -9.566   5.490  0.00  0.00    -0.166 F 
ATOM     21  F   UNL     1      -2.157  -8.091   6.963  0.00  0.00    -0.166 F 
ENDBRANCH  13  18
BRANCH  15  22
ATOM     22  N   UNL     1       1.431  -5.218   4.590  0.00  0.00    -0.096 NA
BRANCH  22  23
ATOM     23  S   UNL     1       2.346  -5.859   5.812  0.00  0.00    +0.092 S 
ATOM     24  O   UNL     1       1.662  -5.575   7.024  0.00  0.00    -0.148 OA
ATOM     25  O   UNL     1       2.680  -7.183   5.418  0.00  0.00    -0.148 OA
BRANCH  23  26
ATOM     26  C   UNL     1       3.856  -4.953   5.862  0.00  0.00    +0.113 A 
ATOM     27  C   UNL     1       4.937  -5.367   5.105  0.00  0.00    +0.029 A 
ATOM     28  C   UNL     1       6.121  -4.656   5.145  0.00  0.00    +0.004 A 
ATOM     29  C   UNL     1       6.226  -3.530   5.941  0.00  0.00    +0.033 A 
ATOM     30  C   UNL     1       5.145  -3.116   6.697  0.00  0.00    +0.128 A 
ATOM     31  C   UNL     1       3.959  -3.825   6.654  0.00  0.00    +0.061 A 
BRANCH  30  32
ATOM     32  N   UNL     1       5.257  -1.911   7.550  0.00  0.00    +0.056 N 
ATOM     33  O   UNL     1       6.294  -1.290   7.585  0.00  0.00    -0.126 OA
ATOM     34  O   UNL     1       4.312  -1.548   8.211  0.00  0.00    -0.126 OA
ENDBRANCH  30  32
ENDBRANCH  23  26
ENDBRANCH  22  23
ENDBRANCH  15  22
TORSDOF 5
