REMARK  Name = CHEMBL1086932
REMARK  8 active torsions:
REMARK  status: ('A' for Active; 'I' for Inactive)
REMARK    1  A    between atoms: C_1  and  C_2
REMARK    2  A    between atoms: C_3  and  C_13
REMARK    3  A    between atoms: N_6  and  C_7
REMARK    4  A    between atoms: N_15  and  C_16
REMARK    5  A    between atoms: C_19  and  O_23
REMARK    6  A    between atoms: O_23  and  C_24
REMARK    7  A    between atoms: C_31  and  C_33
REMARK    8  A    between atoms: N_35  and  C_38
REMARK                            x       y       z     vdW  Elec       q    Type
REMARK                         _______ _______ _______ _____ _____    ______ ____
ROOT
ATOM      1  C   UNL     1       0.082  -0.799  -4.828  0.00  0.00    +0.037 A 
ATOM      2  C   UNL     1       0.228   0.561  -5.069  0.00  0.00    +0.027 A 
ATOM      3  C   UNL     1       0.304   1.029  -6.366  0.00  0.00    +0.051 A 
ATOM      4  C   UNL     1       0.234   0.141  -7.430  0.00  0.00    +0.164 A 
ATOM      5  C   UNL     1       0.088  -1.220  -7.191  0.00  0.00    +0.167 A 
ATOM      6  C   UNL     1       0.018  -1.689  -5.892  0.00  0.00    +0.065 A 
ATOM      7  F   UNL     1       0.020  -2.084  -8.226  0.00  0.00    -0.202 F 
ENDROOT
BRANCH   1  10
ATOM      8  C   UNL     1       0.557  -2.459  -3.191  0.00  0.00    +0.252 C 
ATOM      9  O   UNL     1       1.060  -3.151  -4.055  0.00  0.00    -0.270 OA
ATOM     10  N   UNL     1       0.004  -1.273  -3.513  0.00  0.00    -0.281 N 
ATOM     11  H   UNL     1      -0.447  -0.747  -2.834  0.00  0.00    +0.155 HD
BRANCH   8  14
ATOM     12  C   UNL     1       1.762  -5.168  -2.131  0.00  0.00    +0.066 C 
ATOM     13  C   UNL     1       1.077  -4.103  -1.314  0.00  0.00    +0.054 A 
ATOM     14  C   UNL     1       0.552  -2.918  -1.790  0.00  0.00    +0.078 A 
ATOM     15  C   UNL     1       0.008  -2.228  -0.683  0.00  0.00    +0.148 A 
ATOM     16  N   UNL     1       0.199  -2.957   0.382  0.00  0.00    -0.174 NA
ATOM     17  N   UNL     1       0.860  -4.134   0.014  0.00  0.00    -0.236 N 
BRANCH  17  18
ATOM     18  C   UNL     1       1.234  -5.169   0.881  0.00  0.00    +0.066 A 
ATOM     19  C   UNL     1       1.204  -6.487   0.445  0.00  0.00    +0.028 A 
ATOM     20  C   UNL     1       1.574  -7.505   1.302  0.00  0.00    +0.002 A 
ATOM     21  C   UNL     1       1.974  -7.213   2.594  0.00  0.00    +0.000 A 
ATOM     22  C   UNL     1       2.005  -5.901   3.031  0.00  0.00    +0.002 A 
ATOM     23  C   UNL     1       1.642  -4.878   2.176  0.00  0.00    +0.028 A 
ENDBRANCH  17  18
ENDBRANCH   8  14
ENDBRANCH   1  10
BRANCH   4  24
ATOM     24  O   UNL     1       0.309   0.603  -8.707  0.00  0.00    -0.452 OA
BRANCH  24  25
ATOM     25  C   UNL     1      -0.852   0.882  -9.353  0.00  0.00    +0.146 A 
ATOM     26  C   UNL     1      -2.085   0.603  -8.766  0.00  0.00    +0.067 A 
ATOM     27  C   UNL     1      -3.235   0.909  -9.474  0.00  0.00    +0.115 A 
ATOM     28  N   UNL     1      -3.202   1.449 -10.666  0.00  0.00    -0.254 NA
ATOM     29  C   UNL     1      -2.045   1.748 -11.300  0.00  0.00    +0.082 A 
ATOM     30  C   UNL     1      -0.848   1.457 -10.610  0.00  0.00    +0.080 A 
ATOM     31  S   UNL     1       0.420   1.988 -11.732  0.00  0.00    -0.081 S 
ATOM     32  C   UNL     1      -0.632   2.575 -13.049  0.00  0.00    +0.042 A 
ATOM     33  C   UNL     1      -1.880   2.325 -12.573  0.00  0.00    +0.046 A 
BRANCH  32  34
ATOM     34  C   UNL     1      -0.242   3.173 -14.343  0.00  0.00    +0.095 A 
ATOM     35  C   UNL     1       1.030   3.385 -14.779  0.00  0.00    +0.115 A 
ATOM     36  N   UNL     1       0.930   3.953 -16.018  0.00  0.00    -0.339 N 
ATOM     37  C   UNL     1      -0.386   4.073 -16.304  0.00  0.00    +0.199 A 
ATOM     38  N   UNL     1      -1.082   3.603 -15.308  0.00  0.00    -0.235 NA
ATOM     39  C   UNL     1       2.044   4.359 -16.878  0.00  0.00    +0.150 C 
ENDBRANCH  32  34
ENDBRANCH  24  25
ENDBRANCH   4  24
TORSDOF 6
