REMARK  Name = CHEMBL489326
REMARK  10 active torsions:
REMARK  status: ('A' for Active; 'I' for Inactive)
REMARK    1  A    between atoms: C_1  and  O_2
REMARK    2  A    between atoms: O_2  and  C_3
REMARK    3  A    between atoms: C_6  and  O_15
REMARK    4  A    between atoms: C_12  and  O_13
REMARK    5  A    between atoms: O_13  and  C_14
REMARK    6  A    between atoms: O_15  and  C_16
REMARK    7  A    between atoms: C_19  and  N_23
REMARK    8  A    between atoms: C_24  and  C_26
REMARK    9  A    between atoms: C_26  and  C_29
REMARK   10  A    between atoms: N_31  and  C_32
REMARK                            x       y       z     vdW  Elec       q    Type
REMARK                         _______ _______ _______ _____ _____    ______ ____
ROOT
ATOM      1  C   UNL     1       3.441   2.348  -4.634  0.00  0.00    +0.164 A 
ATOM      2  C   UNL     1       4.731   2.094  -5.076  0.00  0.00    +0.051 A 
ATOM      3  C   UNL     1       5.183   2.660  -6.252  0.00  0.00    +0.027 A 
ATOM      4  C   UNL     1       4.346   3.485  -6.992  0.00  0.00    +0.036 A 
ATOM      5  C   UNL     1       3.055   3.740  -6.551  0.00  0.00    +0.065 A 
ATOM      6  C   UNL     1       2.601   3.168  -5.377  0.00  0.00    +0.167 A 
ATOM      7  F   UNL     1       1.342   3.411  -4.949  0.00  0.00    -0.202 F 
ENDROOT
BRANCH   4   8
ATOM      8  N   UNL     1       4.806   4.060  -8.184  0.00  0.00    -0.285 N 
ATOM      9  C   UNL     1       4.526   5.349  -8.462  0.00  0.00    +0.232 C 
ATOM     10  O   UNL     1       3.780   5.977  -7.741  0.00  0.00    -0.274 OA
ATOM     11  H   UNL     1       5.325   3.531  -8.810  0.00  0.00    +0.155 HD
BRANCH   9  12
ATOM     12  C   UNL     1       5.139   6.010  -9.670  0.00  0.00    +0.123 C 
ATOM     13  C   UNL     1       6.515   6.656  -9.499  0.00  0.00    +0.027 C 
ATOM     14  C   UNL     1       5.271   7.534  -9.651  0.00  0.00    +0.027 C 
BRANCH  12  15
ATOM     15  C   UNL     1       4.838   5.354 -10.993  0.00  0.00    +0.232 C 
ATOM     16  O   UNL     1       4.338   5.999 -11.890  0.00  0.00    -0.274 OA
ATOM     17  N   UNL     1       5.125   4.050 -11.180  0.00  0.00    -0.285 N 
ATOM     18  H   UNL     1       5.433   3.510 -10.436  0.00  0.00    +0.155 HD
BRANCH  17  19
ATOM     19  C   UNL     1       4.977   3.476 -12.448  0.00  0.00    +0.034 A 
ATOM     20  C   UNL     1       5.301   4.206 -13.584  0.00  0.00    +0.026 A 
ATOM     21  C   UNL     1       5.155   3.637 -14.834  0.00  0.00    +0.040 A 
ATOM     22  C   UNL     1       4.685   2.340 -14.955  0.00  0.00    +0.124 A 
ATOM     23  C   UNL     1       4.361   1.611 -13.824  0.00  0.00    +0.040 A 
ATOM     24  C   UNL     1       4.512   2.173 -12.572  0.00  0.00    +0.026 A 
ATOM     25  F   UNL     1       4.541   1.786 -16.179  0.00  0.00    -0.205 F 
ENDBRANCH  17  19
ENDBRANCH  12  15
ENDBRANCH   9  12
ENDBRANCH   4   8
BRANCH   1  26
ATOM     26  O   UNL     1       2.997   1.789  -3.477  0.00  0.00    -0.452 OA
BRANCH  26  30
ATOM     27  C   UNL     1       1.695  -0.213  -0.017  0.00  0.00    +0.162 A 
ATOM     28  C   UNL     1       2.135   0.462  -1.119  0.00  0.00    +0.063 A 
ATOM     29  C   UNL     1       1.789   0.003  -2.398  0.00  0.00    +0.046 A 
ATOM     30  C   UNL     1       2.227   0.676  -3.561  0.00  0.00    +0.139 A 
ATOM     31  C   UNL     1       1.846   0.164  -4.789  0.00  0.00    +0.066 A 
ATOM     32  C   UNL     1       1.057  -0.978  -4.845  0.00  0.00    +0.115 A 
ATOM     33  N   UNL     1       0.656  -1.595  -3.758  0.00  0.00    -0.255 NA
ATOM     34  C   UNL     1       0.987  -1.155  -2.538  0.00  0.00    +0.078 A 
ATOM     35  C   UNL     1       0.549  -1.828  -1.386  0.00  0.00    +0.077 A 
ATOM     36  C   UNL     1       0.905  -1.364  -0.152  0.00  0.00    +0.164 A 
BRANCH  27  38
ATOM     37  C   UNL     1       2.837   1.408   1.295  0.00  0.00    +0.277 C 
ATOM     38  O   UNL     1       2.030   0.231   1.224  0.00  0.00    -0.491 OA
ENDBRANCH  27  38
BRANCH  36  39
ATOM     39  O   UNL     1       0.483  -2.022   0.959  0.00  0.00    -0.491 OA
ATOM     40  C   UNL     1      -0.319  -3.188   0.758  0.00  0.00    +0.277 C 
ENDBRANCH  36  39
ENDBRANCH  26  30
ENDBRANCH   1  26
TORSDOF 8
