REMARK  Name = CHEMBL564904
REMARK  4 active torsions:
REMARK  status: ('A' for Active; 'I' for Inactive)
REMARK    1  A    between atoms: C_5  and  S_7
REMARK    2  A    between atoms: S_7  and  N_10
REMARK    3  A    between atoms: C_16  and  N_19
REMARK    4  A    between atoms: C_25  and  C_27
REMARK                            x       y       z     vdW  Elec       q    Type
REMARK                         _______ _______ _______ _____ _____    ______ ____
ROOT
ATOM      1  N   UNL     1       1.956  -2.379  -1.469  0.00  0.00    -0.217 N 
ATOM      2  C   UNL     1       3.180  -2.971  -1.617  0.00  0.00    +0.114 A 
ATOM      3  C   UNL     1       3.441  -3.165  -2.920  0.00  0.00    +0.049 A 
ATOM      4  C   UNL     1       2.290  -2.655  -3.670  0.00  0.00    +0.091 A 
ATOM      5  C   UNL     1       1.383  -2.177  -2.704  0.00  0.00    +0.092 A 
ATOM      6  C   UNL     1       0.176  -1.630  -3.125  0.00  0.00    +0.054 A 
ATOM      7  C   UNL     1      -0.085  -1.582  -4.489  0.00  0.00    +0.050 A 
ATOM      8  C   UNL     1       0.859  -2.078  -5.386  0.00  0.00    +0.134 A 
ATOM      9  N   UNL     1       1.998  -2.584  -4.965  0.00  0.00    -0.252 NA
ENDROOT
BRANCH   7  10
ATOM     10  N   UNL     1      -1.286  -1.041  -4.958  0.00  0.00    -0.326 N 
ATOM     11  C   UNL     1      -1.521  -0.878  -6.399  0.00  0.00    +0.124 C 
ATOM     12  C   UNL     1      -2.823  -1.601  -6.769  0.00  0.00    +0.127 C 
ATOM     13  N   UNL     1      -3.873  -1.185  -5.829  0.00  0.00    -0.294 N 
ATOM     14  C   UNL     1      -3.639  -1.348  -4.387  0.00  0.00    +0.127 C 
ATOM     15  C   UNL     1      -2.339  -0.631  -4.018  0.00  0.00    +0.124 C 
ATOM     16  C   UNL     1      -5.031  -0.664  -6.281  0.00  0.00    +0.248 C 
ATOM     17  O   UNL     1      -5.851  -0.231  -5.494  0.00  0.00    -0.270 OA
BRANCH  16  18
ATOM     18  C   UNL     1      -5.304  -0.618  -7.733  0.00  0.00    +0.055 A 
ATOM     19  C   UNL     1      -4.965  -1.700  -8.555  0.00  0.00    +0.016 A 
ATOM     20  C   UNL     1      -5.242  -1.607  -9.908  0.00  0.00    +0.020 A 
ATOM     21  C   UNL     1      -5.840  -0.460 -10.400  0.00  0.00    +0.111 A 
ATOM     22  N   UNL     1      -6.148   0.543  -9.601  0.00  0.00    -0.263 NA
ATOM     23  C   UNL     1      -5.910   0.500  -8.306  0.00  0.00    +0.123 A 
ENDBRANCH  16  18
ENDBRANCH   7  10
BRANCH   1  24
ATOM     24  S   UNL     1       1.263  -1.973  -0.021  0.00  0.00    +0.086 S 
ATOM     25  O   UNL     1       2.197  -2.328   0.990  0.00  0.00    -0.148 OA
ATOM     26  O   UNL     1      -0.063  -2.484  -0.047  0.00  0.00    -0.148 OA
BRANCH  24  31
ATOM     27  C   UNL     1      -0.246   1.761   0.069  0.00  0.00    +0.004 A 
ATOM     28  C   UNL     1       0.819   2.595   0.076  0.00  0.00    +0.033 A 
ATOM     29  C   UNL     1       2.131   2.057   0.054  0.00  0.00    +0.136 A 
ATOM     30  C   UNL     1       2.291   0.591   0.022  0.00  0.00    +0.161 A 
ATOM     31  C   UNL     1       1.124  -0.217   0.016  0.00  0.00    +0.142 A 
ATOM     32  C   UNL     1      -0.095   0.369   0.039  0.00  0.00    +0.031 A 
ATOM     33  N   UNL     1       3.575   0.320   0.005  0.00  0.00    -0.047 NA
ATOM     34  O   UNL     1       4.281   1.549   0.025  0.00  0.00    -0.242 OA
ATOM     35  N   UNL     1       3.328   2.598   0.054  0.00  0.00    -0.049 NA
ENDBRANCH  24  31
ENDBRANCH   1  24
TORSDOF 4
