REMARK  Name = CHEMBL450209
REMARK  13 active torsions:
REMARK  status: ('A' for Active; 'I' for Inactive)
REMARK    1  A    between atoms: C_1  and  N_2
REMARK    2  A    between atoms: C_3  and  C_38
REMARK    3  A    between atoms: C_6  and  C_9
REMARK    4  A    between atoms: C_12  and  O_16
REMARK    5  A    between atoms: O_16  and  C_17
REMARK    6  A    between atoms: C_24  and  O_36
REMARK    7  A    between atoms: C_25  and  O_27
REMARK    8  A    between atoms: O_27  and  C_28
REMARK    9  A    between atoms: C_28  and  C_29
REMARK   10  A    between atoms: C_29  and  C_30
REMARK   11  A    between atoms: C_30  and  N_31
REMARK   12  A    between atoms: O_36  and  C_37
REMARK   13  A    between atoms: C_38  and  C_39
REMARK                            x       y       z     vdW  Elec       q    Type
REMARK                         _______ _______ _______ _____ _____    ______ ____
ROOT
ATOM      1  O   UNL     1       5.944  -5.022  -0.052  0.00  0.00    -0.452 OA
ENDROOT
BRANCH   1   2
ATOM      2  C   UNL     1       6.802  -4.854   0.985  0.00  0.00    +0.139 A 
ATOM      3  C   UNL     1       6.461  -4.069   2.072  0.00  0.00    +0.066 A 
ATOM      4  C   UNL     1       7.359  -3.916   3.120  0.00  0.00    +0.115 A 
ATOM      5  N   UNL     1       8.536  -4.498   3.113  0.00  0.00    -0.255 NA
ATOM      6  C   UNL     1       8.931  -5.270   2.094  0.00  0.00    +0.078 A 
ATOM      7  C   UNL     1       8.068  -5.480   0.991  0.00  0.00    +0.046 A 
ATOM      8  C   UNL     1       8.483  -6.295  -0.074  0.00  0.00    +0.063 A 
ATOM      9  C   UNL     1       9.714  -6.883  -0.035  0.00  0.00    +0.162 A 
ATOM     10  C   UNL     1      10.568  -6.682   1.060  0.00  0.00    +0.164 A 
ATOM     11  C   UNL     1      10.194  -5.886   2.103  0.00  0.00    +0.077 A 
BRANCH   9  12
ATOM     12  O   UNL     1      10.116  -7.672  -1.066  0.00  0.00    -0.491 OA
ATOM     13  C   UNL     1       9.201  -7.838  -2.151  0.00  0.00    +0.277 C 
ENDBRANCH   9  12
BRANCH  10  14
ATOM     14  O   UNL     1      11.789  -7.279   1.076  0.00  0.00    -0.488 OA
BRANCH  14  15
ATOM     15  C   UNL     1      12.614  -7.037   2.217  0.00  0.00    +0.227 C 
BRANCH  15  16
ATOM     16  C   UNL     1      13.938  -7.786   2.057  0.00  0.00    +0.022 C 
BRANCH  16  17
ATOM     17  C   UNL     1      14.822  -7.527   3.278  0.00  0.00    -0.076 C 
BRANCH  17  18
ATOM     18  N   UNL     1      16.094  -8.246   3.124  0.00  0.00    +0.380 N 
ATOM     19  C   UNL     1      16.895  -7.642   2.030  0.00  0.00    -0.079 C 
ATOM     20  C   UNL     1      18.341  -8.092   2.358  0.00  0.00    -0.020 C 
ATOM     21  C   UNL     1      18.383  -8.021   3.902  0.00  0.00    -0.020 C 
ATOM     22  C   UNL     1      16.911  -8.104   4.349  0.00  0.00    -0.079 C 
ATOM     23  H   UNL     1      15.921  -9.222   2.932  0.00  0.00    -0.082 HD
ENDBRANCH  17  18
ENDBRANCH  16  17
ENDBRANCH  15  16
ENDBRANCH  14  15
ENDBRANCH  10  14
ENDBRANCH   1   2
BRANCH   1  27
ATOM     24  C   UNL     1       2.433  -2.847  -0.036  0.00  0.00    -0.008 A 
ATOM     25  C   UNL     1       2.435  -4.176   0.387  0.00  0.00    +0.012 A 
ATOM     26  C   UNL     1       3.609  -4.899   0.380  0.00  0.00    +0.050 A 
ATOM     27  C   UNL     1       4.789  -4.306  -0.047  0.00  0.00    +0.164 A 
ATOM     28  C   UNL     1       4.792  -2.982  -0.470  0.00  0.00    +0.166 A 
ATOM     29  C   UNL     1       3.618  -2.254  -0.470  0.00  0.00    +0.050 A 
ATOM     30  F   UNL     1       5.942  -2.408  -0.884  0.00  0.00    -0.202 F 
BRANCH  24  36
ATOM     31  C   UNL     1      -1.344  -0.713   2.376  0.00  0.00    +0.153 C 
ATOM     32  N   UNL     1      -0.635  -1.048   1.138  0.00  0.00    -0.299 N 
ATOM     33  C   UNL     1      -1.127  -0.644  -0.049  0.00  0.00    +0.116 A 
ATOM     34  N   UNL     1      -0.527  -0.920  -1.176  0.00  0.00    -0.241 NA
ATOM     35  C   UNL     1       0.608  -1.619  -1.211  0.00  0.00    +0.126 A 
ATOM     36  C   UNL     1       1.172  -2.068  -0.030  0.00  0.00    +0.065 A 
ATOM     37  C   UNL     1       0.513  -1.757   1.190  0.00  0.00    +0.262 A 
ATOM     38  O   UNL     1       0.972  -2.125   2.259  0.00  0.00    -0.267 OA
BRANCH  33  39
ATOM     39  C   UNL     1      -2.407   0.151  -0.078  0.00  0.00    +0.109 C 
BRANCH  39  40
ATOM     40  C   UNL     1      -2.757   0.488  -1.505  0.00  0.00    -0.040 A 
ATOM     41  C   UNL     1      -2.285   1.655  -2.075  0.00  0.00    +0.004 A 
ATOM     42  C   UNL     1      -2.606   1.964  -3.384  0.00  0.00    +0.000 A 
ATOM     43  C   UNL     1      -3.399   1.105  -4.122  0.00  0.00    +0.000 A 
ATOM     44  C   UNL     1      -3.871  -0.062  -3.552  0.00  0.00    +0.000 A 
ATOM     45  C   UNL     1      -3.546  -0.373  -2.244  0.00  0.00    +0.004 A 
ENDBRANCH  39  40
ENDBRANCH  33  39
ENDBRANCH  24  36
ENDBRANCH   1  27
TORSDOF 11
