REMARK  Name = CHEMBL524364
REMARK  6 active torsions:
REMARK  status: ('A' for Active; 'I' for Inactive)
REMARK    1  A    between atoms: C_3  and  C_7
REMARK    2  A    between atoms: C_13  and  O_17
REMARK    3  A    between atoms: O_17  and  C_18
REMARK    4  A    between atoms: C_21  and  N_25
REMARK    5  A    between atoms: C_29  and  C_31
REMARK    6  A    between atoms: C_31  and  C_32
REMARK                            x       y       z     vdW  Elec       q    Type
REMARK                         _______ _______ _______ _____ _____    ______ ____
ROOT
ATOM      1  C   UNL     1       4.536  -0.814   3.318  0.00  0.00    +0.164 A 
ATOM      2  C   UNL     1       5.781  -0.651   3.908  0.00  0.00    +0.051 A 
ATOM      3  C   UNL     1       6.151  -1.448   4.973  0.00  0.00    +0.027 A 
ATOM      4  C   UNL     1       5.278  -2.414   5.455  0.00  0.00    +0.038 A 
ATOM      5  C   UNL     1       4.032  -2.579   4.865  0.00  0.00    +0.065 A 
ATOM      6  C   UNL     1       3.659  -1.777   3.803  0.00  0.00    +0.167 A 
ATOM      7  F   UNL     1       2.444  -1.932   3.232  0.00  0.00    -0.202 F 
ENDROOT
BRANCH   4   8
ATOM      8  N   UNL     1       5.654  -3.222   6.535  0.00  0.00    -0.269 N 
ATOM      9  C   UNL     1       6.413  -2.713   7.526  0.00  0.00    +0.310 C 
ATOM     10  O   UNL     1       6.831  -1.574   7.447  0.00  0.00    -0.252 OA
ATOM     11  N   UNL     1       6.710  -3.467   8.603  0.00  0.00    -0.240 N 
ATOM     12  C   UNL     1       7.469  -2.958   9.594  0.00  0.00    +0.225 C 
ATOM     13  O   UNL     1       7.885  -1.822   9.515  0.00  0.00    -0.275 OA
ATOM     14  H   UNL     1       5.368  -4.149   6.571  0.00  0.00    +0.156 HD
ATOM     15  H   UNL     1       6.376  -4.375   8.666  0.00  0.00    +0.159 HD
BRANCH  12  16
ATOM     16  C   UNL     1       7.800  -3.800  10.798  0.00  0.00    +0.131 C 
BRANCH  16  17
ATOM     17  C   UNL     1       8.654  -3.002  11.750  0.00  0.00    -0.038 A 
ATOM     18  C   UNL     1      10.031  -3.032  11.632  0.00  0.00    +0.007 A 
ATOM     19  C   UNL     1      10.816  -2.300  12.503  0.00  0.00    +0.038 A 
ATOM     20  C   UNL     1      10.222  -1.538  13.495  0.00  0.00    +0.123 A 
ATOM     21  C   UNL     1       8.842  -1.509  13.612  0.00  0.00    +0.038 A 
ATOM     22  C   UNL     1       8.060  -2.237  12.736  0.00  0.00    +0.007 A 
ATOM     23  F   UNL     1      10.988  -0.823  14.348  0.00  0.00    -0.205 F 
ENDBRANCH  16  17
ENDBRANCH  12  16
ENDBRANCH   4   8
BRANCH   1  24
ATOM     24  O   UNL     1       4.172  -0.029   2.269  0.00  0.00    -0.452 OA
BRANCH  24  31
ATOM     25  C   UNL     1       3.419   2.060   0.068  0.00  0.00    +0.014 A 
ATOM     26  C   UNL     1       2.854   3.205  -0.387  0.00  0.00    +0.093 A 
ATOM     27  N   UNL     1       2.276   3.878   0.653  0.00  0.00    -0.345 N 
ATOM     28  H   UNL     1       1.809   4.725   0.574  0.00  0.00    +0.167 HD
ATOM     29  C   UNL     1       2.450   3.182   1.826  0.00  0.00    +0.142 A 
ATOM     30  C   UNL     1       3.165   2.014   1.515  0.00  0.00    +0.069 A 
ATOM     31  C   UNL     1       3.480   1.107   2.534  0.00  0.00    +0.141 A 
ATOM     32  C   UNL     1       3.062   1.407   3.825  0.00  0.00    +0.067 A 
ATOM     33  C   UNL     1       2.358   2.575   4.055  0.00  0.00    +0.117 A 
ATOM     34  N   UNL     1       2.080   3.417   3.080  0.00  0.00    -0.237 NA
BRANCH  25  37
ATOM     35  C   UNL     1       4.303  -0.400  -2.630  0.00  0.00    +0.020 A 
ATOM     36  C   UNL     1       3.584   0.542  -1.914  0.00  0.00    +0.011 A 
ATOM     37  C   UNL     1       4.145   1.049  -0.738  0.00  0.00    +0.002 A 
ATOM     38  C   UNL     1       5.398   0.589  -0.335  0.00  0.00    +0.119 A 
ATOM     39  N   UNL     1       6.043  -0.309  -1.050  0.00  0.00    -0.263 NA
ATOM     40  C   UNL     1       5.540  -0.805  -2.163  0.00  0.00    +0.111 A 
ENDBRANCH  25  37
ENDBRANCH  24  31
ENDBRANCH   1  24
TORSDOF 6
