REMARK  Name = CHEMBL511592
REMARK  3 active torsions:
REMARK  status: ('A' for Active; 'I' for Inactive)
REMARK    1  A    between atoms: C_1  and  N_2
REMARK    2  A    between atoms: C_13  and  C_30
REMARK    3  A    between atoms: C_15  and  C_18
REMARK                            x       y       z     vdW  Elec       q    Type
REMARK                         _______ _______ _______ _____ _____    ______ ____
ROOT
ATOM      1  C   UNL     1       0.296   1.447   0.163  0.00  0.00    -0.096 C 
ATOM      2  N   UNL     1       0.155  -0.013   0.076  0.00  0.00    +0.380 N 
ATOM      3  C   UNL     1      -1.259  -0.376   0.234  0.00  0.00    -0.060 C 
ATOM      4  C   UNL     1      -1.423  -1.886   0.030  0.00  0.00    +0.088 C 
ATOM      5  N   UNL     1      -0.511  -2.583   0.950  0.00  0.00    -0.318 N 
ATOM      6  C   UNL     1       0.899  -2.167   0.975  0.00  0.00    +0.088 C 
ATOM      7  C   UNL     1       0.954  -0.644   1.134  0.00  0.00    -0.060 C 
ATOM      8  C   UNL     1      -0.969  -3.603   1.771  0.00  0.00    +0.140 A 
ATOM      9  C   UNL     1      -2.257  -4.131   1.577  0.00  0.00    +0.155 A 
ATOM     10  N   UNL     1      -2.705  -5.095   2.343  0.00  0.00    -0.250 NA
ATOM     11  C   UNL     1      -1.931  -5.584   3.321  0.00  0.00    +0.090 A 
ATOM     12  C   UNL     1      -2.390  -6.618   4.155  0.00  0.00    +0.042 A 
ATOM     13  C   UNL     1      -1.591  -7.105   5.145  0.00  0.00    +0.058 A 
ATOM     14  C   UNL     1      -0.315  -6.595   5.353  0.00  0.00    +0.023 A 
ATOM     15  C   UNL     1       0.176  -5.577   4.556  0.00  0.00    +0.010 A 
ATOM     16  C   UNL     1      -0.634  -5.054   3.519  0.00  0.00    +0.099 A 
ATOM     17  N   UNL     1      -0.189  -4.074   2.726  0.00  0.00    -0.228 NA
ATOM     18  H   UNL     1       0.482  -0.328  -0.824  0.00  0.00    -0.082 HD
ENDROOT
BRANCH  15  19
ATOM     19  C   UNL     1       1.537  -5.039   4.784  0.00  0.00    -0.014 A 
ATOM     20  C   UNL     1       2.426  -4.909   3.714  0.00  0.00    +0.011 A 
ATOM     21  C   UNL     1       3.693  -4.409   3.923  0.00  0.00    +0.028 A 
ATOM     22  C   UNL     1       4.089  -4.032   5.199  0.00  0.00    +0.067 A 
ATOM     23  C   UNL     1       3.204  -4.159   6.274  0.00  0.00    +0.067 A 
ATOM     24  C   UNL     1       1.929  -4.656   6.065  0.00  0.00    +0.036 A 
ATOM     25  N   UNL     1       3.879  -3.706   7.406  0.00  0.00    -0.306 N 
ATOM     26  H   UNL     1       3.519  -3.674   8.306  0.00  0.00    +0.170 HD
ATOM     27  C   UNL     1       5.115  -3.322   7.037  0.00  0.00    +0.325 A 
ATOM     28  O   UNL     1       5.963  -2.877   7.787  0.00  0.00    -0.247 OA
ATOM     29  N   UNL     1       5.272  -3.506   5.713  0.00  0.00    -0.306 N 
ATOM     30  H   UNL     1       6.072  -3.307   5.203  0.00  0.00    +0.170 HD
ENDBRANCH  15  19
BRANCH  13  31
ATOM     31  C   UNL     1      -2.100  -8.214   6.030  0.00  0.00    +0.418 C 
ATOM     32  F   UNL     1      -3.397  -8.564   5.640  0.00  0.00    -0.166 F 
ATOM     33  F   UNL     1      -1.260  -9.327   5.911  0.00  0.00    -0.166 F 
ATOM     34  F   UNL     1      -2.114  -7.780   7.360  0.00  0.00    -0.166 F 
ENDBRANCH  13  31
TORSDOF 2
