REMARK  Name = CHEMBL460774
REMARK  9 active torsions:
REMARK  status: ('A' for Active; 'I' for Inactive)
REMARK    1  A    between atoms: C_1  and  O_2
REMARK    2  A    between atoms: O_2  and  C_3
REMARK    3  A    between atoms: C_6  and  O_15
REMARK    4  A    between atoms: C_12  and  O_13
REMARK    5  A    between atoms: O_13  and  C_14
REMARK    6  A    between atoms: O_15  and  C_16
REMARK    7  A    between atoms: C_21  and  N_26
REMARK    8  A    between atoms: C_27  and  C_29
REMARK    9  A    between atoms: C_29  and  C_30
REMARK                            x       y       z     vdW  Elec       q    Type
REMARK                         _______ _______ _______ _____ _____    ______ ____
ROOT
ATOM      1  C   UNL     1      -5.932   2.273  -0.034  0.00  0.00    +0.129 A 
ATOM      2  C   UNL     1      -7.158   1.607   0.059  0.00  0.00    +0.047 A 
ATOM      3  C   UNL     1      -8.330   2.296   0.054  0.00  0.00    +0.012 A 
ATOM      4  C   UNL     1      -8.314   3.699  -0.045  0.00  0.00    -0.016 A 
ATOM      5  C   UNL     1      -9.507   4.441  -0.052  0.00  0.00    +0.031 A 
ATOM      6  C   UNL     1      -9.452   5.813  -0.151  0.00  0.00    +0.034 A 
ATOM      7  C   UNL     1      -8.222   6.474  -0.245  0.00  0.00    +0.024 A 
ATOM      8  C   UNL     1      -7.053   5.779  -0.241  0.00  0.00    +0.010 A 
ATOM      9  C   UNL     1      -7.072   4.377  -0.141  0.00  0.00    -0.014 A 
ATOM     10  C   UNL     1      -5.880   3.634  -0.128  0.00  0.00    +0.054 A 
ENDROOT
BRANCH   6  11
ATOM     11  N   UNL     1     -10.639   6.554  -0.159  0.00  0.00    -0.285 N 
ATOM     12  C   UNL     1     -10.637   7.833   0.267  0.00  0.00    +0.222 C 
ATOM     13  O   UNL     1      -9.634   8.308   0.756  0.00  0.00    -0.275 OA
ATOM     14  H   UNL     1     -11.462   6.148  -0.470  0.00  0.00    +0.155 HD
BRANCH  12  15
ATOM     15  C   UNL     1     -11.882   8.673   0.135  0.00  0.00    +0.131 C 
BRANCH  15  16
ATOM     16  C   UNL     1     -11.617  10.052   0.681  0.00  0.00    -0.039 A 
ATOM     17  C   UNL     1     -11.848  10.323   2.017  0.00  0.00    +0.004 A 
ATOM     18  C   UNL     1     -11.606  11.588   2.517  0.00  0.00    +0.000 A 
ATOM     19  C   UNL     1     -11.131  12.583   1.683  0.00  0.00    +0.000 A 
ATOM     20  C   UNL     1     -10.899  12.312   0.347  0.00  0.00    +0.000 A 
ATOM     21  C   UNL     1     -11.138  11.045  -0.153  0.00  0.00    +0.004 A 
ENDBRANCH  15  16
ENDBRANCH  12  15
ENDBRANCH   6  11
BRANCH   1  22
ATOM     22  O   UNL     1      -4.777   1.556  -0.027  0.00  0.00    -0.455 OA
BRANCH  22  26
ATOM     23  C   UNL     1      -1.105  -0.468  -0.320  0.00  0.00    +0.162 A 
ATOM     24  C   UNL     1      -2.288   0.200  -0.190  0.00  0.00    +0.063 A 
ATOM     25  C   UNL     1      -3.203   0.204  -1.253  0.00  0.00    +0.044 A 
ATOM     26  C   UNL     1      -4.437   0.885  -1.155  0.00  0.00    +0.139 A 
ATOM     27  C   UNL     1      -5.289   0.845  -2.245  0.00  0.00    +0.064 A 
ATOM     28  C   UNL     1      -4.913   0.149  -3.387  0.00  0.00    +0.086 A 
ATOM     29  N   UNL     1      -3.764  -0.480  -3.468  0.00  0.00    -0.360 N 
ATOM     30  C   UNL     1      -2.893  -0.483  -2.452  0.00  0.00    +0.054 A 
ATOM     31  C   UNL     1      -1.667  -1.161  -2.555  0.00  0.00    +0.075 A 
ATOM     32  C   UNL     1      -0.792  -1.145  -1.507  0.00  0.00    +0.163 A 
ATOM     33  H   UNL     1      -3.541  -0.955  -4.284  0.00  0.00    +0.165 HD
BRANCH  23  35
ATOM     34  C   UNL     1      -0.594   0.235   1.894  0.00  0.00    +0.277 C 
ATOM     35  O   UNL     1      -0.217  -0.472   0.711  0.00  0.00    -0.491 OA
ENDBRANCH  23  35
BRANCH  32  36
ATOM     36  O   UNL     1       0.395  -1.798  -1.615  0.00  0.00    -0.491 OA
ATOM     37  C   UNL     1       0.656  -2.469  -2.849  0.00  0.00    +0.277 C 
ENDBRANCH  32  36
ENDBRANCH  22  26
ENDBRANCH   1  22
TORSDOF 7
