REMARK  Name = CHEMBL551458
REMARK  4 active torsions:
REMARK  status: ('A' for Active; 'I' for Inactive)
REMARK    1  A    between atoms: C_1  and  N_2
REMARK    2  A    between atoms: C_11  and  C_14
REMARK    3  A    between atoms: N_20  and  S_21
REMARK    4  A    between atoms: S_21  and  C_24
REMARK                            x       y       z     vdW  Elec       q    Type
REMARK                         _______ _______ _______ _____ _____    ______ ____
ROOT
ATOM      1  C   UNL     1      -2.275  -6.698   4.311  0.00  0.00    +0.004 A 
ATOM      2  C   UNL     1      -1.423  -7.160   5.314  0.00  0.00    +0.039 A 
ATOM      3  C   UNL     1      -1.875  -8.181   6.141  0.00  0.00    +0.091 A 
ATOM      4  C   UNL     1      -3.165  -8.708   5.935  0.00  0.00    +0.090 A 
ATOM      5  C   UNL     1      -3.336  -9.749   6.950  0.00  0.00    +0.049 A 
ATOM      6  C   UNL     1      -2.203  -9.790   7.670  0.00  0.00    +0.114 A 
ATOM      7  N   UNL     1      -1.318  -8.860   7.201  0.00  0.00    -0.217 N 
ATOM      8  N   UNL     1      -3.943  -8.236   4.965  0.00  0.00    -0.253 NA
ATOM      9  C   UNL     1      -3.543  -7.268   4.172  0.00  0.00    +0.120 A 
ENDROOT
BRANCH   1  20
ATOM     10  C   UNL     1       0.297   1.447   0.163  0.00  0.00    -0.096 C 
ATOM     11  N   UNL     1       0.155  -0.013   0.076  0.00  0.00    +0.380 N 
ATOM     12  C   UNL     1      -1.259  -0.376   0.234  0.00  0.00    -0.060 C 
ATOM     13  C   UNL     1      -1.424  -1.885   0.030  0.00  0.00    +0.088 C 
ATOM     14  N   UNL     1      -0.511  -2.583   0.950  0.00  0.00    -0.319 N 
ATOM     15  C   UNL     1       0.900  -2.167   0.974  0.00  0.00    +0.088 C 
ATOM     16  C   UNL     1       0.955  -0.644   1.134  0.00  0.00    -0.060 C 
ATOM     17  C   UNL     1      -0.970  -3.604   1.773  0.00  0.00    +0.121 A 
ATOM     18  C   UNL     1      -2.246  -4.124   1.576  0.00  0.00    +0.044 A 
ATOM     19  C   UNL     1      -2.694  -5.140   2.397  0.00  0.00    +0.013 A 
ATOM     20  C   UNL     1      -1.840  -5.609   3.402  0.00  0.00    +0.002 A 
ATOM     21  C   UNL     1      -0.577  -5.040   3.537  0.00  0.00    +0.121 A 
ATOM     22  N   UNL     1      -0.184  -4.075   2.730  0.00  0.00    -0.240 NA
ATOM     23  H   UNL     1       0.482  -0.328  -0.824  0.00  0.00    -0.082 HD
ENDBRANCH   1  20
BRANCH   7  24
ATOM     24  S   UNL     1       0.196  -8.591   7.816  0.00  0.00    +0.086 S 
ATOM     25  O   UNL     1       0.314  -7.187   8.005  0.00  0.00    -0.148 OA
ATOM     26  O   UNL     1       0.375  -9.520   8.877  0.00  0.00    -0.148 OA
BRANCH  24  27
ATOM     27  C   UNL     1       1.353  -9.029   6.562  0.00  0.00    +0.142 A 
ATOM     28  C   UNL     1       2.150  -8.084   6.012  0.00  0.00    +0.031 A 
ATOM     29  C   UNL     1       3.082  -8.393   5.013  0.00  0.00    +0.004 A 
ATOM     30  C   UNL     1       3.235  -9.653   4.545  0.00  0.00    +0.033 A 
ATOM     31  C   UNL     1       2.436 -10.700   5.072  0.00  0.00    +0.136 A 
ATOM     32  C   UNL     1       1.458 -10.376   6.128  0.00  0.00    +0.161 A 
ATOM     33  N   UNL     1       0.841 -11.484   6.466  0.00  0.00    -0.047 NA
ATOM     34  O   UNL     1       1.372 -12.537   5.681  0.00  0.00    -0.242 OA
ATOM     35  N   UNL     1       2.358 -11.987   4.825  0.00  0.00    -0.049 NA
ENDBRANCH  24  27
ENDBRANCH   7  24
TORSDOF 3
