REMARK  Name = CHEMBL549980
REMARK  4 active torsions:
REMARK  status: ('A' for Active; 'I' for Inactive)
REMARK    1  A    between atoms: C_1  and  C_2
REMARK    2  A    between atoms: N_7  and  C_10
REMARK    3  A    between atoms: N_16  and  S_17
REMARK    4  A    between atoms: S_17  and  C_20
REMARK                            x       y       z     vdW  Elec       q    Type
REMARK                         _______ _______ _______ _____ _____    ______ ____
ROOT
ATOM      1  C   UNL     1      -4.478  -2.666  -1.164  0.00  0.00    +0.050 A 
ATOM      2  C   UNL     1      -4.468  -4.051  -1.265  0.00  0.00    +0.054 A 
ATOM      3  C   UNL     1      -5.687  -4.721  -1.253  0.00  0.00    +0.092 A 
ATOM      4  C   UNL     1      -6.875  -3.975  -1.139  0.00  0.00    +0.091 A 
ATOM      5  C   UNL     1      -7.965  -4.954  -1.157  0.00  0.00    +0.049 A 
ATOM      6  C   UNL     1      -7.404  -6.168  -1.273  0.00  0.00    +0.114 A 
ATOM      7  N   UNL     1      -6.042  -6.049  -1.332  0.00  0.00    -0.217 N 
ATOM      8  N   UNL     1      -6.834  -2.650  -1.046  0.00  0.00    -0.252 NA
ATOM      9  C   UNL     1      -5.694  -1.995  -1.050  0.00  0.00    +0.134 A 
ENDROOT
BRANCH   1  16
ATOM     10  C   UNL     1      -0.027   1.517  -0.007  0.00  0.00    +0.109 C 
ATOM     11  C   UNL     1      -0.006   0.010   0.002  0.00  0.00    +0.213 C 
ATOM     12  O   UNL     1       1.052  -0.582   0.003  0.00  0.00    -0.276 OA
ATOM     13  N   UNL     1      -1.164  -0.680   0.009  0.00  0.00    -0.299 N 
ATOM     14  C   UNL     1      -2.454   0.024   0.002  0.00  0.00    +0.126 C 
ATOM     15  C   UNL     1      -3.281  -0.481  -1.187  0.00  0.00    +0.124 C 
ATOM     16  N   UNL     1      -3.276  -1.950  -1.172  0.00  0.00    -0.326 N 
ATOM     17  C   UNL     1      -1.986  -2.654  -1.165  0.00  0.00    +0.124 C 
ATOM     18  C   UNL     1      -1.159  -2.150   0.018  0.00  0.00    +0.126 C 
ENDBRANCH   1  16
BRANCH   7  19
ATOM     19  S   UNL     1      -4.981  -7.311  -1.478  0.00  0.00    +0.086 S 
ATOM     20  O   UNL     1      -3.983  -7.120  -0.485  0.00  0.00    -0.148 OA
ATOM     21  O   UNL     1      -5.764  -8.495  -1.552  0.00  0.00    -0.148 OA
BRANCH  19  22
ATOM     22  C   UNL     1      -4.179  -7.140  -3.037  0.00  0.00    +0.142 A 
ATOM     23  C   UNL     1      -2.848  -6.904  -3.095  0.00  0.00    +0.031 A 
ATOM     24  C   UNL     1      -2.175  -6.763  -4.315  0.00  0.00    +0.004 A 
ATOM     25  C   UNL     1      -2.819  -6.854  -5.501  0.00  0.00    +0.033 A 
ATOM     26  C   UNL     1      -4.216  -7.101  -5.524  0.00  0.00    +0.136 A 
ATOM     27  C   UNL     1      -4.924  -7.255  -4.239  0.00  0.00    +0.161 A 
ATOM     28  N   UNL     1      -6.192  -7.479  -4.496  0.00  0.00    -0.047 NA
ATOM     29  O   UNL     1      -6.357  -7.486  -5.904  0.00  0.00    -0.242 OA
ATOM     30  N   UNL     1      -5.092  -7.238  -6.492  0.00  0.00    -0.049 NA
ENDBRANCH  19  22
ENDBRANCH   7  19
TORSDOF 3
