REMARK  Name = CHEMBL254761
REMARK  9 active torsions:
REMARK  status: ('A' for Active; 'I' for Inactive)
REMARK    1  A    between atoms: C_1  and  N_2
REMARK    2  A    between atoms: C_8  and  C_10
REMARK    3  A    between atoms: C_15  and  O_19
REMARK    4  A    between atoms: O_19  and  C_20
REMARK    5  A    between atoms: C_23  and  N_27
REMARK    6  A    between atoms: N_27  and  C_28
REMARK    7  A    between atoms: C_28  and  N_30
REMARK    8  A    between atoms: C_31  and  C_33
REMARK    9  A    between atoms: C_33  and  C_34
REMARK                            x       y       z     vdW  Elec       q    Type
REMARK                         _______ _______ _______ _____ _____    ______ ____
ROOT
ATOM      1  C   UNL     1       3.538  -4.250   7.345  0.00  0.00    +0.164 A 
ATOM      2  C   UNL     1       3.228  -5.404   8.048  0.00  0.00    +0.051 A 
ATOM      3  C   UNL     1       3.685  -5.570   9.341  0.00  0.00    +0.027 A 
ATOM      4  C   UNL     1       4.454  -4.580   9.938  0.00  0.00    +0.036 A 
ATOM      5  C   UNL     1       4.765  -3.424   9.235  0.00  0.00    +0.065 A 
ATOM      6  C   UNL     1       4.313  -3.261   7.939  0.00  0.00    +0.167 A 
ATOM      7  F   UNL     1       4.620  -2.139   7.252  0.00  0.00    -0.202 F 
ENDROOT
BRANCH   4   8
ATOM      8  N   UNL     1       4.916  -4.748  11.250  0.00  0.00    -0.297 N 
ATOM      9  H   UNL     1       4.873  -4.010  11.877  0.00  0.00    +0.154 HD
BRANCH   8  10
ATOM     10  C   UNL     1       5.420  -5.936  11.640  0.00  0.00    +0.141 C 
ATOM     11  S   UNL     1       5.629  -7.194  10.498  0.00  0.00    -0.018 S 
BRANCH  10  12
ATOM     12  N   UNL     1       5.759  -6.133  12.929  0.00  0.00    -0.267 N 
ATOM     13  C   UNL     1       6.263  -7.320  13.319  0.00  0.00    +0.223 C 
ATOM     14  O   UNL     1       6.411  -8.211  12.511  0.00  0.00    -0.275 OA
ATOM     15  H   UNL     1       5.641  -5.420  13.576  0.00  0.00    +0.157 HD
BRANCH  13  16
ATOM     16  C   UNL     1       6.643  -7.541  14.761  0.00  0.00    +0.131 C 
BRANCH  16  17
ATOM     17  C   UNL     1       7.176  -8.940  14.932  0.00  0.00    -0.039 A 
ATOM     18  C   UNL     1       6.313  -9.976  15.236  0.00  0.00    +0.004 A 
ATOM     19  C   UNL     1       6.802 -11.259  15.393  0.00  0.00    +0.000 A 
ATOM     20  C   UNL     1       8.154 -11.507  15.245  0.00  0.00    +0.000 A 
ATOM     21  C   UNL     1       9.017 -10.470  14.940  0.00  0.00    +0.000 A 
ATOM     22  C   UNL     1       8.527  -9.188  14.779  0.00  0.00    +0.004 A 
ENDBRANCH  16  17
ENDBRANCH  13  16
ENDBRANCH  10  12
ENDBRANCH   8  10
ENDBRANCH   4   8
BRANCH   1  23
ATOM     23  O   UNL     1       3.088  -4.088   6.072  0.00  0.00    -0.452 OA
BRANCH  23  29
ATOM     24  C   UNL     1       2.696  -3.652   1.243  0.00  0.00    +0.077 A 
ATOM     25  C   UNL     1       3.932  -4.202   1.381  0.00  0.00    +0.049 A 
ATOM     26  C   UNL     1       4.433  -4.492   2.662  0.00  0.00    +0.082 A 
ATOM     27  C   UNL     1       3.570  -4.172   3.734  0.00  0.00    +0.080 A 
ATOM     28  S   UNL     1       2.141  -3.494   2.932  0.00  0.00    -0.078 S 
ATOM     29  C   UNL     1       3.929  -4.402   5.054  0.00  0.00    +0.146 A 
ATOM     30  C   UNL     1       5.177  -4.963   5.301  0.00  0.00    +0.067 A 
ATOM     31  C   UNL     1       5.993  -5.262   4.220  0.00  0.00    +0.115 A 
ATOM     32  N   UNL     1       5.630  -5.035   2.985  0.00  0.00    -0.254 NA
BRANCH  24  40
ATOM     33  C   UNL     1       0.615   1.928  -0.565  0.00  0.00    -0.096 C 
ATOM     34  N   UNL     1       0.439   0.495  -0.296  0.00  0.00    +0.380 N 
ATOM     35  C   UNL     1       0.817  -0.275  -1.488  0.00  0.00    -0.060 C 
ATOM     36  C   UNL     1       0.525  -1.760  -1.249  0.00  0.00    +0.089 C 
ATOM     37  N   UNL     1       1.210  -2.177  -0.015  0.00  0.00    -0.301 N 
ATOM     38  C   UNL     1       1.016  -1.362   1.194  0.00  0.00    +0.089 C 
ATOM     39  C   UNL     1       1.284   0.104   0.839  0.00  0.00    -0.060 C 
ATOM     40  C   UNL     1       1.992  -3.274   0.007  0.00  0.00    +0.253 C 
ATOM     41  O   UNL     1       2.116  -3.953  -0.995  0.00  0.00    -0.269 OA
ATOM     42  H   UNL     1      -0.528   0.312  -0.073  0.00  0.00    -0.082 HD
ENDBRANCH  24  40
ENDBRANCH  23  29
ENDBRANCH   1  23
TORSDOF 8
