REMARK  Name = CHEMBL518511
REMARK  8 active torsions:
REMARK  status: ('A' for Active; 'I' for Inactive)
REMARK    1  A    between atoms: C_1  and  O_2
REMARK    2  A    between atoms: O_2  and  C_3
REMARK    3  A    between atoms: C_6  and  O_15
REMARK    4  A    between atoms: C_12  and  O_13
REMARK    5  A    between atoms: O_13  and  C_14
REMARK    6  A    between atoms: O_15  and  C_16
REMARK    7  A    between atoms: C_23  and  C_25
REMARK    8  A    between atoms: C_25  and  C_26
REMARK                            x       y       z     vdW  Elec       q    Type
REMARK                         _______ _______ _______ _____ _____    ______ ____
ROOT
ATOM      1  C   UNL     1       2.954   2.344   5.135  0.00  0.00    +0.147 A 
ATOM      2  C   UNL     1       2.833   3.732   5.133  0.00  0.00    +0.051 A 
ATOM      3  C   UNL     1       3.386   4.443   6.182  0.00  0.00    +0.047 A 
ATOM      4  C   UNL     1       4.040   3.755   7.197  0.00  0.00    +0.125 A 
ATOM      5  N   UNL     1       4.136   2.436   7.167  0.00  0.00    -0.236 NA
ATOM      6  C   UNL     1       3.615   1.725   6.184  0.00  0.00    +0.159 A 
ATOM      7  N   UNL     1       4.602   4.463   8.261  0.00  0.00    -0.270 N 
ATOM      8  C   UNL     1       5.331   3.816   9.191  0.00  0.00    +0.223 C 
ATOM      9  O   UNL     1       5.417   2.606   9.161  0.00  0.00    -0.275 OA
ATOM     10  H   UNL     1       4.469   5.421   8.329  0.00  0.00    +0.156 HD
ENDROOT
BRANCH   1  11
ATOM     11  O   UNL     1       2.426   1.606   4.124  0.00  0.00    -0.454 OA
BRANCH  11  15
ATOM     12  C   UNL     1       0.485  -0.513   1.054  0.00  0.00    +0.162 A 
ATOM     13  C   UNL     1       1.142   0.184   2.027  0.00  0.00    +0.063 A 
ATOM     14  C   UNL     1       0.608   0.241   3.322  0.00  0.00    +0.044 A 
ATOM     15  C   UNL     1       1.260   0.953   4.354  0.00  0.00    +0.139 A 
ATOM     16  C   UNL     1       0.672   0.964   5.607  0.00  0.00    +0.064 A 
ATOM     17  C   UNL     1      -0.523   0.286   5.813  0.00  0.00    +0.086 A 
ATOM     18  N   UNL     1      -1.120  -0.373   4.848  0.00  0.00    -0.360 N 
ATOM     19  C   UNL     1      -0.608  -0.425   3.612  0.00  0.00    +0.054 A 
ATOM     20  C   UNL     1      -1.261  -1.134   2.590  0.00  0.00    +0.075 A 
ATOM     21  C   UNL     1      -0.722  -1.168   1.337  0.00  0.00    +0.163 A 
ATOM     22  H   UNL     1      -1.953  -0.833   5.034  0.00  0.00    +0.165 HD
BRANCH  12  24
ATOM     23  C   UNL     1       2.235   0.121  -0.426  0.00  0.00    +0.277 C 
ATOM     24  O   UNL     1       1.003  -0.567  -0.202  0.00  0.00    -0.491 OA
ENDBRANCH  12  24
BRANCH  21  25
ATOM     25  O   UNL     1      -1.360  -1.852   0.351  0.00  0.00    -0.491 OA
ATOM     26  C   UNL     1      -2.586  -2.499   0.699  0.00  0.00    +0.277 C 
ENDBRANCH  21  25
ENDBRANCH  11  15
ENDBRANCH   1  11
BRANCH   8  27
ATOM     27  C   UNL     1       6.039   4.594  10.270  0.00  0.00    +0.131 C 
BRANCH  27  28
ATOM     28  C   UNL     1       6.776   3.642  11.176  0.00  0.00    -0.039 A 
ATOM     29  C   UNL     1       6.144   3.114  12.286  0.00  0.00    +0.004 A 
ATOM     30  C   UNL     1       6.820   2.240  13.117  0.00  0.00    +0.000 A 
ATOM     31  C   UNL     1       8.128   1.894  12.837  0.00  0.00    +0.000 A 
ATOM     32  C   UNL     1       8.761   2.421  11.726  0.00  0.00    +0.000 A 
ATOM     33  C   UNL     1       8.083   3.291  10.893  0.00  0.00    +0.004 A 
ENDBRANCH  27  28
ENDBRANCH   8  27
TORSDOF 6
