REMARK  Name = CHEMBL600604
REMARK  12 active torsions:
REMARK  status: ('A' for Active; 'I' for Inactive)
REMARK    1  A    between atoms: C_1  and  O_2
REMARK    2  A    between atoms: O_2  and  C_3
REMARK    3  A    between atoms: C_6  and  O_15
REMARK    4  A    between atoms: C_12  and  O_13
REMARK    5  A    between atoms: O_13  and  C_14
REMARK    6  A    between atoms: O_15  and  C_16
REMARK    7  A    between atoms: C_19  and  N_23
REMARK    8  A    between atoms: N_23  and  C_24
REMARK    9  A    between atoms: C_24  and  C_25
REMARK   10  A    between atoms: C_24  and  C_35
REMARK   11  A    between atoms: C_25  and  C_26
REMARK   12  A    between atoms: N_28  and  C_29
REMARK                            x       y       z     vdW  Elec       q    Type
REMARK                         _______ _______ _______ _____ _____    ______ ____
ROOT
ATOM      1  C   UNL     1       3.398   1.300  -5.755  0.00  0.00    +0.164 A 
ATOM      2  C   UNL     1       3.930   0.685  -6.879  0.00  0.00    +0.051 A 
ATOM      3  C   UNL     1       4.466   1.450  -7.896  0.00  0.00    +0.027 A 
ATOM      4  C   UNL     1       4.473   2.835  -7.795  0.00  0.00    +0.031 A 
ATOM      5  C   UNL     1       3.941   3.451  -6.671  0.00  0.00    +0.065 A 
ATOM      6  C   UNL     1       3.399   2.685  -5.655  0.00  0.00    +0.167 A 
ATOM      7  F   UNL     1       2.876   3.284  -4.562  0.00  0.00    -0.202 F 
ENDROOT
BRANCH   4   8
ATOM      8  N   UNL     1       5.017   3.609  -8.826  0.00  0.00    -0.333 N 
ATOM      9  H   UNL     1       5.389   3.179  -9.611  0.00  0.00    +0.147 HD
BRANCH   8  10
ATOM     10  C   UNL     1       5.024   5.070  -8.719  0.00  0.00    +0.184 C 
BRANCH  10  11
ATOM     11  C   UNL     1       6.256   5.518  -7.931  0.00  0.00    +0.408 C 
ATOM     12  F   UNL     1       7.413   5.094  -8.593  0.00  0.00    -0.169 F 
ATOM     13  F   UNL     1       6.263   6.914  -7.829  0.00  0.00    -0.169 F 
ATOM     14  F   UNL     1       6.220   4.957  -6.650  0.00  0.00    -0.169 F 
ENDBRANCH  10  11
BRANCH  10  15
ATOM     15  C   UNL     1       5.063   5.684 -10.120  0.00  0.00    +0.127 C 
BRANCH  15  16
ATOM     16  C   UNL     1       3.792   5.344 -10.854  0.00  0.00    +0.219 C 
ATOM     17  O   UNL     1       2.938   4.676 -10.309  0.00  0.00    -0.275 OA
ATOM     18  N   UNL     1       3.603   5.782 -12.114  0.00  0.00    -0.285 N 
ATOM     19  H   UNL     1       4.315   6.252 -12.576  0.00  0.00    +0.155 HD
BRANCH  18  20
ATOM     20  C   UNL     1       2.381   5.557 -12.758  0.00  0.00    +0.033 A 
ATOM     21  C   UNL     1       2.348   5.325 -14.127  0.00  0.00    +0.023 A 
ATOM     22  C   UNL     1       1.140   5.104 -14.759  0.00  0.00    +0.002 A 
ATOM     23  C   UNL     1      -0.035   5.112 -14.030  0.00  0.00    +0.000 A 
ATOM     24  C   UNL     1      -0.005   5.342 -12.667  0.00  0.00    +0.002 A 
ATOM     25  C   UNL     1       1.200   5.558 -12.028  0.00  0.00    +0.023 A 
ENDBRANCH  18  20
ENDBRANCH  15  16
ENDBRANCH  10  15
ENDBRANCH   8  10
ENDBRANCH   4   8
BRANCH   1  26
ATOM     26  O   UNL     1       2.871   0.546  -4.753  0.00  0.00    -0.452 OA
BRANCH  26  30
ATOM     27  C   UNL     1       1.079  -1.995  -1.923  0.00  0.00    +0.162 A 
ATOM     28  C   UNL     1       1.694  -1.177  -2.826  0.00  0.00    +0.063 A 
ATOM     29  C   UNL     1       0.930  -0.521  -3.803  0.00  0.00    +0.046 A 
ATOM     30  C   UNL     1       1.532   0.333  -4.754  0.00  0.00    +0.139 A 
ATOM     31  C   UNL     1       0.713   0.944  -5.687  0.00  0.00    +0.066 A 
ATOM     32  C   UNL     1      -0.655   0.707  -5.663  0.00  0.00    +0.115 A 
ATOM     33  N   UNL     1      -1.204  -0.088  -4.775  0.00  0.00    -0.255 NA
ATOM     34  C   UNL     1      -0.473  -0.712  -3.844  0.00  0.00    +0.078 A 
ATOM     35  C   UNL     1      -1.077  -1.560  -2.901  0.00  0.00    +0.077 A 
ATOM     36  C   UNL     1      -0.309  -2.191  -1.965  0.00  0.00    +0.164 A 
BRANCH  27  38
ATOM     37  C   UNL     1       3.229  -2.390  -0.986  0.00  0.00    +0.277 C 
ATOM     38  O   UNL     1       1.820  -2.631  -0.977  0.00  0.00    -0.491 OA
ENDBRANCH  27  38
BRANCH  36  39
ATOM     39  O   UNL     1      -0.897  -3.014  -1.059  0.00  0.00    -0.491 OA
ATOM     40  C   UNL     1      -2.314  -3.174  -1.152  0.00  0.00    +0.277 C 
ENDBRANCH  36  39
ENDBRANCH  26  30
ENDBRANCH   1  26
TORSDOF 10
