REMARK  Name = CHEMBL523413
REMARK  5 active torsions:
REMARK  status: ('A' for Active; 'I' for Inactive)
REMARK    1  A    between atoms: C_1  and  C_2
REMARK    2  A    between atoms: C_4  and  C_7
REMARK    3  A    between atoms: C_13  and  C_16
REMARK    4  A    between atoms: C_16  and  C_17
REMARK    5  A    between atoms: C_20  and  O_23
REMARK                            x       y       z     vdW  Elec       q    Type
REMARK                         _______ _______ _______ _____ _____    ______ ____
ROOT
ATOM      1  C   UNL     1       0.032  -3.085  -2.158  0.00  0.00    +0.100 A 
ATOM      2  C   UNL     1       0.047  -4.455  -1.814  0.00  0.00    +0.034 A 
ATOM      3  C   UNL     1       0.054  -5.402  -2.788  0.00  0.00    +0.052 A 
ATOM      4  C   UNL     1       0.047  -4.999  -4.137  0.00  0.00    +0.178 A 
ATOM      5  N   UNL     1       0.050  -5.653  -5.287  0.00  0.00    -0.128 NA
ATOM      6  N   UNL     1       0.039  -4.807  -6.258  0.00  0.00    -0.132 NA
ATOM      7  C   UNL     1       0.028  -3.583  -5.791  0.00  0.00    +0.159 A 
ATOM      8  N   UNL     1       0.032  -3.659  -4.442  0.00  0.00    -0.196 N 
ATOM      9  N   UNL     1       0.020  -2.708  -3.419  0.00  0.00    -0.163 NA
ENDROOT
BRANCH   1  13
ATOM     10  C   UNL     1      -0.018   1.503   0.010  0.00  0.00    +0.066 C 
ATOM     11  C   UNL     1       0.002  -0.004   0.002  0.00  0.00    +0.048 A 
ATOM     12  C   UNL     1       0.005  -0.680  -1.193  0.00  0.00    +0.042 A 
ATOM     13  C   UNL     1       0.024  -2.063  -1.090  0.00  0.00    +0.059 A 
ATOM     14  S   UNL     1       0.036  -2.275   0.681  0.00  0.00    +0.013 S 
ATOM     15  N   UNL     1       0.022  -0.661   1.134  0.00  0.00    -0.215 NA
ENDBRANCH   1  13
BRANCH   7  16
ATOM     16  C   UNL     1       0.014  -2.319  -6.611  0.00  0.00    +0.113 C 
BRANCH  16  17
ATOM     17  C   UNL     1      -1.412  -1.911  -6.880  0.00  0.00    -0.040 A 
ATOM     18  C   UNL     1      -2.063  -2.381  -8.006  0.00  0.00    +0.007 A 
ATOM     19  C   UNL     1      -3.369  -2.008  -8.256  0.00  0.00    +0.045 A 
ATOM     20  C   UNL     1      -4.029  -1.163  -7.376  0.00  0.00    +0.117 A 
ATOM     21  C   UNL     1      -3.373  -0.693  -6.247  0.00  0.00    +0.045 A 
ATOM     22  C   UNL     1      -2.068  -1.073  -5.999  0.00  0.00    +0.007 A 
BRANCH  20  23
ATOM     23  O   UNL     1      -5.314  -0.794  -7.619  0.00  0.00    -0.507 OA
ATOM     24  H   UNL     1      -5.973  -1.387  -7.233  0.00  0.00    +0.292 HD
ENDBRANCH  20  23
ENDBRANCH  16  17
ENDBRANCH   7  16
TORSDOF 4
