REMARK  Name = CHEMBL497118
REMARK  5 active torsions:
REMARK  status: ('A' for Active; 'I' for Inactive)
REMARK    1  A    between atoms: C_1  and  C_2
REMARK    2  A    between atoms: C_4  and  C_7
REMARK    3  A    between atoms: C_13  and  C_16
REMARK    4  A    between atoms: C_16  and  C_17
REMARK    5  A    between atoms: C_20  and  O_23
REMARK                            x       y       z     vdW  Elec       q    Type
REMARK                         _______ _______ _______ _____ _____    ______ ____
ROOT
ATOM      1  C   UNL     1       0.032  -3.022  -2.281  0.00  0.00    +0.098 A 
ATOM      2  C   UNL     1       0.047  -4.410  -2.016  0.00  0.00    +0.034 A 
ATOM      3  C   UNL     1       0.054  -5.299  -3.043  0.00  0.00    +0.052 A 
ATOM      4  C   UNL     1       0.046  -4.819  -4.367  0.00  0.00    +0.178 A 
ATOM      5  N   UNL     1       0.049  -5.406  -5.553  0.00  0.00    -0.128 NA
ATOM      6  N   UNL     1       0.037  -4.505  -6.473  0.00  0.00    -0.132 NA
ATOM      7  C   UNL     1       0.026  -3.310  -5.936  0.00  0.00    +0.159 A 
ATOM      8  N   UNL     1       0.031  -3.463  -4.594  0.00  0.00    -0.196 N 
ATOM      9  N   UNL     1       0.019  -2.573  -3.519  0.00  0.00    -0.163 NA
ENDROOT
BRANCH   1  13
ATOM     10  C   UNL     1      -0.018   1.503   0.010  0.00  0.00    +0.044 C 
ATOM     11  C   UNL     1       0.002  -0.004   0.002  0.00  0.00    -0.043 A 
ATOM     12  C   UNL     1       0.005  -0.695  -1.189  0.00  0.00    +0.021 A 
ATOM     13  C   UNL     1       0.025  -2.064  -1.156  0.00  0.00    +0.039 A 
ATOM     14  S   UNL     1       0.038  -2.390   0.599  0.00  0.00    -0.095 S 
ATOM     15  C   UNL     1       0.023  -0.698   1.170  0.00  0.00    +0.049 A 
ENDBRANCH   1  13
BRANCH   7  16
ATOM     16  C   UNL     1       0.010  -2.000  -6.682  0.00  0.00    +0.113 C 
BRANCH  16  17
ATOM     17  C   UNL     1      -1.415  -1.579  -6.926  0.00  0.00    -0.040 A 
ATOM     18  C   UNL     1      -2.067  -1.983  -8.077  0.00  0.00    +0.007 A 
ATOM     19  C   UNL     1      -3.374  -1.597  -8.304  0.00  0.00    +0.045 A 
ATOM     20  C   UNL     1      -4.033  -0.804  -7.375  0.00  0.00    +0.117 A 
ATOM     21  C   UNL     1      -3.377  -0.400  -6.221  0.00  0.00    +0.045 A 
ATOM     22  C   UNL     1      -2.072  -0.793  -5.997  0.00  0.00    +0.007 A 
BRANCH  20  23
ATOM     23  O   UNL     1      -5.319  -0.423  -7.596  0.00  0.00    -0.507 OA
ATOM     24  H   UNL     1      -5.977  -1.037  -7.244  0.00  0.00    +0.292 HD
ENDBRANCH  20  23
ENDBRANCH  16  17
ENDBRANCH   7  16
TORSDOF 4
