REMARK  Name = CHEMBL600604
REMARK  12 active torsions:
REMARK  status: ('A' for Active; 'I' for Inactive)
REMARK    1  A    between atoms: C_1  and  O_2
REMARK    2  A    between atoms: O_2  and  C_3
REMARK    3  A    between atoms: C_6  and  O_15
REMARK    4  A    between atoms: C_12  and  O_13
REMARK    5  A    between atoms: O_13  and  C_14
REMARK    6  A    between atoms: O_15  and  C_16
REMARK    7  A    between atoms: C_19  and  N_23
REMARK    8  A    between atoms: N_23  and  C_24
REMARK    9  A    between atoms: C_24  and  C_25
REMARK   10  A    between atoms: C_24  and  C_35
REMARK   11  A    between atoms: C_25  and  C_26
REMARK   12  A    between atoms: N_28  and  C_29
REMARK                            x       y       z     vdW  Elec       q    Type
REMARK                         _______ _______ _______ _____ _____    ______ ____
ROOT
ATOM      1  C   UNL     1       3.036   3.150  -4.536  0.00  0.00    +0.164 A 
ATOM      2  C   UNL     1       3.437   2.201  -5.465  0.00  0.00    +0.051 A 
ATOM      3  C   UNL     1       4.011   2.599  -6.656  0.00  0.00    +0.027 A 
ATOM      4  C   UNL     1       4.189   3.950  -6.925  0.00  0.00    +0.031 A 
ATOM      5  C   UNL     1       3.788   4.901  -5.996  0.00  0.00    +0.065 A 
ATOM      6  C   UNL     1       3.208   4.502  -4.806  0.00  0.00    +0.167 A 
ATOM      7  F   UNL     1       2.812   5.426  -3.904  0.00  0.00    -0.202 F 
ENDROOT
BRANCH   4   8
ATOM      8  N   UNL     1       4.771   4.352  -8.132  0.00  0.00    -0.333 N 
ATOM      9  H   UNL     1       5.051   3.688  -8.780  0.00  0.00    +0.147 HD
BRANCH   8  10
ATOM     10  C   UNL     1       4.958   5.777  -8.415  0.00  0.00    +0.184 C 
BRANCH  10  11
ATOM     11  C   UNL     1       3.672   6.351  -9.014  0.00  0.00    +0.408 C 
ATOM     12  F   UNL     1       2.622   6.191  -8.104  0.00  0.00    -0.169 F 
ATOM     13  F   UNL     1       3.851   7.712  -9.285  0.00  0.00    -0.169 F 
ATOM     14  F   UNL     1       3.369   5.676 -10.201  0.00  0.00    -0.169 F 
ENDBRANCH  10  11
BRANCH  10  15
ATOM     15  C   UNL     1       6.107   5.953  -9.410  0.00  0.00    +0.127 C 
BRANCH  15  16
ATOM     16  C   UNL     1       7.396   5.501  -8.774  0.00  0.00    +0.219 C 
ATOM     17  O   UNL     1       7.396   5.079  -7.637  0.00  0.00    -0.275 OA
ATOM     18  N   UNL     1       8.549   5.565  -9.469  0.00  0.00    -0.285 N 
ATOM     19  H   UNL     1       8.562   5.969 -10.351  0.00  0.00    +0.155 HD
BRANCH  18  20
ATOM     20  C   UNL     1       9.727   5.048  -8.919  0.00  0.00    +0.033 A 
ATOM     21  C   UNL     1      10.946   5.656  -9.188  0.00  0.00    +0.023 A 
ATOM     22  C   UNL     1      12.107   5.144  -8.643  0.00  0.00    +0.002 A 
ATOM     23  C   UNL     1      12.057   4.025  -7.831  0.00  0.00    +0.000 A 
ATOM     24  C   UNL     1      10.844   3.417  -7.562  0.00  0.00    +0.002 A 
ATOM     25  C   UNL     1       9.679   3.928  -8.098  0.00  0.00    +0.023 A 
ENDBRANCH  18  20
ENDBRANCH  15  16
ENDBRANCH  10  15
ENDBRANCH   8  10
ENDBRANCH   4   8
BRANCH   1  26
ATOM     26  O   UNL     1       2.471   2.757  -3.363  0.00  0.00    -0.452 OA
BRANCH  26  30
ATOM     27  C   UNL     1       0.524   1.292   0.063  0.00  0.00    +0.162 A 
ATOM     28  C   UNL     1       1.190   1.761  -1.033  0.00  0.00    +0.063 A 
ATOM     29  C   UNL     1       0.463   2.232  -2.137  0.00  0.00    +0.046 A 
ATOM     30  C   UNL     1       1.117   2.724  -3.289  0.00  0.00    +0.139 A 
ATOM     31  C   UNL     1       0.334   3.171  -4.338  0.00  0.00    +0.066 A 
ATOM     32  C   UNL     1      -1.050   3.125  -4.233  0.00  0.00    +0.115 A 
ATOM     33  N   UNL     1      -1.647   2.666  -3.158  0.00  0.00    -0.255 NA
ATOM     34  C   UNL     1      -0.952   2.218  -2.106  0.00  0.00    +0.078 A 
ATOM     35  C   UNL     1      -1.608   1.730  -0.964  0.00  0.00    +0.077 A 
ATOM     36  C   UNL     1      -0.877   1.272   0.094  0.00  0.00    +0.164 A 
BRANCH  27  38
ATOM     37  C   UNL     1       2.653   0.882   1.040  0.00  0.00    +0.277 C 
ATOM     38  O   UNL     1       1.228   0.835   1.133  0.00  0.00    -0.491 OA
ENDBRANCH  27  38
BRANCH  36  39
ATOM     39  O   UNL     1      -1.516   0.795   1.195  0.00  0.00    -0.491 OA
ATOM     40  C   UNL     1      -2.945   0.799   1.167  0.00  0.00    +0.277 C 
ENDBRANCH  36  39
ENDBRANCH  26  30
ENDBRANCH   1  26
TORSDOF 10
