REMARK  Name = CHEMBL567475
REMARK  9 active torsions:
REMARK  status: ('A' for Active; 'I' for Inactive)
REMARK    1  A    between atoms: C_1  and  C_2
REMARK    2  A    between atoms: C_2  and  N_3
REMARK    3  A    between atoms: C_5  and  C_8
REMARK    4  A    between atoms: C_13  and  O_17
REMARK    5  A    between atoms: O_17  and  C_18
REMARK    6  A    between atoms: C_21  and  N_25
REMARK    7  A    between atoms: C_26  and  C_28
REMARK    8  A    between atoms: C_28  and  C_29
REMARK    9  A    between atoms: N_31  and  C_32
REMARK                            x       y       z     vdW  Elec       q    Type
REMARK                         _______ _______ _______ _____ _____    ______ ____
ROOT
ATOM      1  C   UNL     1       9.691  -2.479   3.255  0.00  0.00    +0.164 A 
ATOM      2  C   UNL     1       9.929  -3.027   4.506  0.00  0.00    +0.051 A 
ATOM      3  C   UNL     1      11.213  -3.384   4.871  0.00  0.00    +0.027 A 
ATOM      4  C   UNL     1      12.265  -3.192   3.986  0.00  0.00    +0.036 A 
ATOM      5  C   UNL     1      12.028  -2.643   2.733  0.00  0.00    +0.065 A 
ATOM      6  C   UNL     1      10.742  -2.293   2.365  0.00  0.00    +0.167 A 
ATOM      7  F   UNL     1      10.509  -1.764   1.144  0.00  0.00    -0.202 F 
ENDROOT
BRANCH   4   8
ATOM      8  N   UNL     1      13.567  -3.553   4.357  0.00  0.00    -0.285 N 
ATOM      9  C   UNL     1      14.472  -3.877   3.413  0.00  0.00    +0.226 C 
ATOM     10  O   UNL     1      14.132  -3.964   2.252  0.00  0.00    -0.275 OA
ATOM     11  H   UNL     1      13.817  -3.569   5.295  0.00  0.00    +0.155 HD
BRANCH   9  12
ATOM     12  C   UNL     1      15.906  -4.133   3.799  0.00  0.00    +0.192 C 
BRANCH  12  13
ATOM     13  C   UNL     1      16.705  -4.474   2.568  0.00  0.00    +0.226 C 
ATOM     14  O   UNL     1      16.163  -4.506   1.483  0.00  0.00    -0.275 OA
ATOM     15  N   UNL     1      18.022  -4.742   2.672  0.00  0.00    -0.285 N 
ATOM     16  H   UNL     1      18.439  -4.794   3.546  0.00  0.00    +0.155 HD
BRANCH  15  17
ATOM     17  C   UNL     1      18.788  -4.947   1.518  0.00  0.00    +0.034 A 
ATOM     18  C   UNL     1      19.828  -5.867   1.528  0.00  0.00    +0.026 A 
ATOM     19  C   UNL     1      20.583  -6.067   0.388  0.00  0.00    +0.040 A 
ATOM     20  C   UNL     1      20.302  -5.351  -0.763  0.00  0.00    +0.124 A 
ATOM     21  C   UNL     1      19.265  -4.434  -0.776  0.00  0.00    +0.040 A 
ATOM     22  C   UNL     1      18.504  -4.235   0.360  0.00  0.00    +0.026 A 
ATOM     23  F   UNL     1      21.042  -5.548  -1.877  0.00  0.00    -0.205 F 
ENDBRANCH  15  17
ENDBRANCH  12  13
ENDBRANCH   9  12
ENDBRANCH   4   8
BRANCH   1  24
ATOM     24  O   UNL     1       8.427  -2.129   2.896  0.00  0.00    -0.452 OA
BRANCH  24  30
ATOM     25  C   UNL     1       3.784  -2.124   1.454  0.00  0.00    +0.040 A 
ATOM     26  C   UNL     1       4.206  -3.350   1.051  0.00  0.00    +0.046 A 
ATOM     27  C   UNL     1       5.534  -3.751   1.290  0.00  0.00    +0.082 A 
ATOM     28  C   UNL     1       6.341  -2.802   1.955  0.00  0.00    +0.080 A 
ATOM     29  S   UNL     1       5.246  -1.428   2.205  0.00  0.00    -0.082 S 
ATOM     30  C   UNL     1       7.666  -3.054   2.256  0.00  0.00    +0.146 A 
ATOM     31  C   UNL     1       8.197  -4.288   1.883  0.00  0.00    +0.067 A 
ATOM     32  C   UNL     1       7.373  -5.190   1.234  0.00  0.00    +0.115 A 
ATOM     33  N   UNL     1       6.120  -4.925   0.961  0.00  0.00    -0.254 NA
BRANCH  25  36
ATOM     34  N   UNL     1       0.763  -0.118   1.382  0.00  0.00    -0.338 N 
ATOM     35  C   UNL     1       2.077  -0.272   1.722  0.00  0.00    +0.113 A 
ATOM     36  C   UNL     1       2.446  -1.514   1.303  0.00  0.00    +0.071 A 
ATOM     37  N   UNL     1       1.370  -2.086   0.724  0.00  0.00    -0.345 N 
ATOM     38  C   UNL     1       0.365  -1.258   0.774  0.00  0.00    +0.174 A 
ATOM     39  H   UNL     1       1.347  -2.974   0.334  0.00  0.00    +0.167 HD
BRANCH  34  41
ATOM     40  C   UNL     1      -0.742   0.929   3.000  0.00  0.00    +0.027 C 
ATOM     41  C   UNL     1      -0.065   1.064   1.635  0.00  0.00    +0.119 C 
ENDBRANCH  34  41
ENDBRANCH  25  36
ENDBRANCH  24  30
ENDBRANCH   1  24
TORSDOF 8
