REMARK  Name = CHEMBL500921
REMARK  6 active torsions:
REMARK  status: ('A' for Active; 'I' for Inactive)
REMARK    1  A    between atoms: C_6  and  N_7
REMARK    2  A    between atoms: C_8  and  C_10
REMARK    3  A    between atoms: C_10  and  C_11
REMARK    4  A    between atoms: N_13  and  C_14
REMARK    5  A    between atoms: C_17  and  O_21
REMARK    6  A    between atoms: O_21  and  C_22
REMARK                            x       y       z     vdW  Elec       q    Type
REMARK                         _______ _______ _______ _____ _____    ______ ____
ROOT
ATOM      1  C   UNL     1      -3.161  -6.606  -0.354  0.00  0.00    +0.036 A 
ATOM      2  C   UNL     1      -1.852  -7.045  -0.202  0.00  0.00    +0.027 A 
ATOM      3  C   UNL     1      -1.574  -8.398  -0.197  0.00  0.00    +0.051 A 
ATOM      4  C   UNL     1      -2.600  -9.319  -0.343  0.00  0.00    +0.164 A 
ATOM      5  C   UNL     1      -3.910  -8.881  -0.495  0.00  0.00    +0.167 A 
ATOM      6  C   UNL     1      -4.190  -7.527  -0.495  0.00  0.00    +0.065 A 
ATOM      7  F   UNL     1      -4.910  -9.778  -0.638  0.00  0.00    -0.202 F 
ENDROOT
BRANCH   1  10
ATOM      8  C   UNL     1      -2.555  -4.365  -0.884  0.00  0.00    +0.226 C 
ATOM      9  O   UNL     1      -1.554  -4.777  -1.430  0.00  0.00    -0.275 OA
ATOM     10  N   UNL     1      -3.443  -5.234  -0.360  0.00  0.00    -0.285 N 
ATOM     11  H   UNL     1      -4.277  -4.908   0.013  0.00  0.00    +0.155 HD
BRANCH   8  12
ATOM     12  C   UNL     1      -2.807  -2.882  -0.791  0.00  0.00    +0.192 C 
BRANCH  12  14
ATOM     13  N   UNL     1      -1.683  -0.791  -1.486  0.00  0.00    -0.285 N 
ATOM     14  C   UNL     1      -1.673  -2.138  -1.448  0.00  0.00    +0.226 C 
ATOM     15  O   UNL     1      -0.751  -2.752  -1.944  0.00  0.00    -0.275 OA
ATOM     16  H   UNL     1      -2.381  -0.298  -1.026  0.00  0.00    +0.155 HD
BRANCH  13  22
ATOM     17  C   UNL     1      -0.144  -0.652  -3.343  0.00  0.00    +0.026 A 
ATOM     18  C   UNL     1       0.838   0.028  -4.036  0.00  0.00    +0.040 A 
ATOM     19  C   UNL     1       1.282   1.258  -3.580  0.00  0.00    +0.124 A 
ATOM     20  C   UNL     1       0.743   1.808  -2.429  0.00  0.00    +0.040 A 
ATOM     21  C   UNL     1      -0.240   1.130  -1.733  0.00  0.00    +0.026 A 
ATOM     22  C   UNL     1      -0.687  -0.103  -2.189  0.00  0.00    +0.034 A 
ATOM     23  F   UNL     1       2.243   1.922  -4.258  0.00  0.00    -0.205 F 
ENDBRANCH  13  22
ENDBRANCH  12  14
ENDBRANCH   8  12
ENDBRANCH   1  10
BRANCH   4  24
ATOM     24  O   UNL     1      -2.325 -10.650  -0.338  0.00  0.00    -0.452 OA
BRANCH  24  25
ATOM     25  C   UNL     1      -2.189 -11.277  -1.533  0.00  0.00    +0.141 A 
ATOM     26  C   UNL     1      -2.215 -10.562  -2.724  0.00  0.00    +0.066 A 
ATOM     27  C   UNL     1      -2.073 -11.238  -3.923  0.00  0.00    +0.117 A 
ATOM     28  N   UNL     1      -1.912 -12.544  -3.966  0.00  0.00    -0.237 NA
ATOM     29  C   UNL     1      -1.879 -13.282  -2.862  0.00  0.00    +0.142 A 
ATOM     30  C   UNL     1      -2.011 -12.666  -1.605  0.00  0.00    +0.061 A 
ATOM     31  C   UNL     1      -1.925 -13.738  -0.612  0.00  0.00    +0.032 A 
ATOM     32  C   UNL     1      -1.749 -14.883  -1.290  0.00  0.00    +0.085 A 
ATOM     33  N   UNL     1      -1.728 -14.629  -2.636  0.00  0.00    -0.346 N 
ATOM     34  H   UNL     1      -1.612 -15.299  -3.327  0.00  0.00    +0.167 HD
ENDBRANCH  24  25
ENDBRANCH   4  24
TORSDOF 6
