REMARK  Name = CHEMBL461119
REMARK  8 active torsions:
REMARK  status: ('A' for Active; 'I' for Inactive)
REMARK    1  A    between atoms: C_1  and  O_2
REMARK    2  A    between atoms: O_2  and  C_3
REMARK    3  A    between atoms: C_6  and  O_15
REMARK    4  A    between atoms: C_12  and  O_13
REMARK    5  A    between atoms: O_13  and  C_14
REMARK    6  A    between atoms: O_15  and  C_16
REMARK    7  A    between atoms: C_26  and  C_28
REMARK    8  A    between atoms: C_28  and  N_29
REMARK                            x       y       z     vdW  Elec       q    Type
REMARK                         _______ _______ _______ _____ _____    ______ ____
ROOT
ATOM      1  C   UNL     1       2.911   2.400  -5.130  0.00  0.00    +0.147 A 
ATOM      2  C   UNL     1       2.934   3.789  -5.029  0.00  0.00    +0.051 A 
ATOM      3  C   UNL     1       3.549   4.513  -6.035  0.00  0.00    +0.047 A 
ATOM      4  C   UNL     1       4.119   3.835  -7.106  0.00  0.00    +0.126 A 
ATOM      5  N   UNL     1       4.078   2.514  -7.169  0.00  0.00    -0.236 NA
ATOM      6  C   UNL     1       3.505   1.792  -6.224  0.00  0.00    +0.159 A 
ATOM      7  N   UNL     1       4.742   4.555  -8.126  0.00  0.00    -0.254 N 
ATOM      8  C   UNL     1       5.200   3.915  -9.220  0.00  0.00    +0.311 C 
ATOM      9  O   UNL     1       5.161   2.702  -9.275  0.00  0.00    -0.252 OA
ATOM     10  N   UNL     1       5.702   4.621 -10.253  0.00  0.00    -0.241 N 
ATOM     11  C   UNL     1       6.160   3.981 -11.347  0.00  0.00    +0.204 C 
ATOM     12  O   UNL     1       6.121   2.770 -11.402  0.00  0.00    -0.277 OA
ATOM     13  H   UNL     1       4.845   5.516  -8.048  0.00  0.00    +0.158 HD
ATOM     14  H   UNL     1       5.733   5.589 -10.209  0.00  0.00    +0.159 HD
ENDROOT
BRANCH   1  15
ATOM     15  O   UNL     1       2.317   1.650  -4.164  0.00  0.00    -0.454 OA
BRANCH  15  19
ATOM     16  C   UNL     1       0.681  -0.500  -0.944  0.00  0.00    +0.162 A 
ATOM     17  C   UNL     1       1.177   0.206  -2.001  0.00  0.00    +0.063 A 
ATOM     18  C   UNL     1       2.565   0.300  -2.183  0.00  0.00    +0.046 A 
ATOM     19  C   UNL     1       3.115   1.023  -3.265  0.00  0.00    +0.139 A 
ATOM     20  C   UNL     1       4.494   1.071  -3.379  0.00  0.00    +0.066 A 
ATOM     21  C   UNL     1       5.285   0.418  -2.443  0.00  0.00    +0.115 A 
ATOM     22  N   UNL     1       4.764  -0.251  -1.442  0.00  0.00    -0.255 NA
ATOM     23  C   UNL     1       3.440  -0.339  -1.270  0.00  0.00    +0.078 A 
ATOM     24  C   UNL     1       2.898  -1.059  -0.192  0.00  0.00    +0.077 A 
ATOM     25  C   UNL     1       1.544  -1.129  -0.035  0.00  0.00    +0.164 A 
BRANCH  16  27
ATOM     26  C   UNL     1      -1.491   0.072  -1.726  0.00  0.00    +0.277 C 
ATOM     27  O   UNL     1      -0.664  -0.591  -0.767  0.00  0.00    -0.491 OA
ENDBRANCH  16  27
BRANCH  25  28
ATOM     28  O   UNL     1       1.026  -1.822   1.013  0.00  0.00    -0.491 OA
ATOM     29  C   UNL     1       1.955  -2.441   1.904  0.00  0.00    +0.277 C 
ENDBRANCH  25  28
ENDBRANCH  15  19
ENDBRANCH   1  15
BRANCH  11  30
ATOM     30  C   UNL     1       6.721   4.770 -12.502  0.00  0.00    +0.019 C 
BRANCH  30  31
ATOM     31  N   UNL     1       7.150   3.848 -13.562  0.00  0.00    +0.385 N 
ATOM     32  C   UNL     1       5.968   3.194 -14.181  0.00  0.00    -0.078 C 
ATOM     33  C   UNL     1       6.497   2.742 -15.565  0.00  0.00    -0.020 C 
ATOM     34  C   UNL     1       7.434   3.902 -15.973  0.00  0.00    -0.020 C 
ATOM     35  C   UNL     1       7.812   4.597 -14.652  0.00  0.00    -0.078 C 
ATOM     36  H   UNL     1       7.777   3.152 -13.187  0.00  0.00    -0.081 HD
ENDBRANCH  30  31
ENDBRANCH  11  30
TORSDOF 6
