REMARK  Name = CHEMBL600603
REMARK  12 active torsions:
REMARK  status: ('A' for Active; 'I' for Inactive)
REMARK    1  A    between atoms: C_1  and  O_2
REMARK    2  A    between atoms: O_2  and  C_3
REMARK    3  A    between atoms: C_6  and  O_15
REMARK    4  A    between atoms: C_12  and  O_13
REMARK    5  A    between atoms: O_13  and  C_14
REMARK    6  A    between atoms: O_15  and  C_16
REMARK    7  A    between atoms: C_19  and  N_23
REMARK    8  A    between atoms: C_24  and  C_26
REMARK    9  A    between atoms: C_26  and  C_27
REMARK   10  A    between atoms: C_27  and  C_28
REMARK   11  A    between atoms: C_27  and  N_32
REMARK   12  A    between atoms: N_32  and  C_33
REMARK                            x       y       z     vdW  Elec       q    Type
REMARK                         _______ _______ _______ _____ _____    ______ ____
ROOT
ATOM      1  C   UNL     1       3.006   2.183  -5.214  0.00  0.00    +0.164 A 
ATOM      2  C   UNL     1       3.524   1.398  -6.234  0.00  0.00    +0.051 A 
ATOM      3  C   UNL     1       4.115   1.992  -7.331  0.00  0.00    +0.027 A 
ATOM      4  C   UNL     1       4.191   3.376  -7.415  0.00  0.00    +0.036 A 
ATOM      5  C   UNL     1       3.672   4.163  -6.396  0.00  0.00    +0.065 A 
ATOM      6  C   UNL     1       3.075   3.568  -5.300  0.00  0.00    +0.167 A 
ATOM      7  F   UNL     1       2.566   4.332  -4.309  0.00  0.00    -0.202 F 
ENDROOT
BRANCH   4   8
ATOM      8  N   UNL     1       4.791   3.979  -8.528  0.00  0.00    -0.285 N 
ATOM      9  C   UNL     1       4.659   3.422  -9.749  0.00  0.00    +0.219 C 
ATOM     10  O   UNL     1       4.082   2.362  -9.873  0.00  0.00    -0.275 OA
ATOM     11  H   UNL     1       5.301   4.796  -8.421  0.00  0.00    +0.155 HD
BRANCH   9  12
ATOM     12  C   UNL     1       5.229   4.115 -10.959  0.00  0.00    +0.127 C 
BRANCH  12  13
ATOM     13  C   UNL     1       4.944   3.279 -12.208  0.00  0.00    +0.184 C 
BRANCH  13  14
ATOM     14  C   UNL     1       5.629   3.918 -13.417  0.00  0.00    +0.408 C 
ATOM     15  F   UNL     1       7.010   3.972 -13.197  0.00  0.00    -0.169 F 
ATOM     16  F   UNL     1       5.369   3.153 -14.559  0.00  0.00    -0.169 F 
ATOM     17  F   UNL     1       5.135   5.214 -13.602  0.00  0.00    -0.169 F 
ENDBRANCH  13  14
BRANCH  13  18
ATOM     18  N   UNL     1       3.499   3.222 -12.438  0.00  0.00    -0.333 N 
ATOM     19  H   UNL     1       2.925   3.927 -12.099  0.00  0.00    +0.147 HD
BRANCH  18  20
ATOM     20  C   UNL     1       2.946   2.153 -13.148  0.00  0.00    +0.028 A 
ATOM     21  C   UNL     1       3.765   1.140 -13.630  0.00  0.00    +0.023 A 
ATOM     22  C   UNL     1       3.215   0.085 -14.331  0.00  0.00    +0.002 A 
ATOM     23  C   UNL     1       1.851   0.036 -14.553  0.00  0.00    +0.000 A 
ATOM     24  C   UNL     1       1.033   1.042 -14.074  0.00  0.00    +0.002 A 
ATOM     25  C   UNL     1       1.575   2.098 -13.367  0.00  0.00    +0.023 A 
ENDBRANCH  18  20
ENDBRANCH  13  18
ENDBRANCH  12  13
ENDBRANCH   9  12
ENDBRANCH   4   8
BRANCH   1  26
ATOM     26  O   UNL     1       2.424   1.596  -4.134  0.00  0.00    -0.452 OA
BRANCH  26  30
ATOM     27  C   UNL     1       0.472  -0.479  -1.042  0.00  0.00    +0.162 A 
ATOM     28  C   UNL     1       1.138   0.190  -2.028  0.00  0.00    +0.063 A 
ATOM     29  C   UNL     1       0.426   0.707  -3.120  0.00  0.00    +0.046 A 
ATOM     30  C   UNL     1       1.082   1.404  -4.160  0.00  0.00    +0.139 A 
ATOM     31  C   UNL     1       0.312   1.885  -5.205  0.00  0.00    +0.066 A 
ATOM     32  C   UNL     1      -1.060   1.673  -5.204  0.00  0.00    +0.115 A 
ATOM     33  N   UNL     1      -1.660   1.024  -4.233  0.00  0.00    -0.255 NA
ATOM     34  C   UNL     1      -0.978   0.532  -3.192  0.00  0.00    +0.078 A 
ATOM     35  C   UNL     1      -1.635  -0.161  -2.162  0.00  0.00    +0.077 A 
ATOM     36  C   UNL     1      -0.917  -0.659  -1.113  0.00  0.00    +0.164 A 
BRANCH  27  38
ATOM     37  C   UNL     1       2.575  -0.765   0.030  0.00  0.00    +0.277 C 
ATOM     38  O   UNL     1       1.162  -0.981   0.016  0.00  0.00    -0.491 OA
ENDBRANCH  27  38
BRANCH  36  39
ATOM     39  O   UNL     1      -1.557  -1.333  -0.122  0.00  0.00    -0.491 OA
ATOM     40  C   UNL     1      -2.973  -1.484  -0.250  0.00  0.00    +0.277 C 
ENDBRANCH  36  39
ENDBRANCH  26  30
ENDBRANCH   1  26
TORSDOF 10
