REMARK  Name = CHEMBL477768
REMARK  7 active torsions:
REMARK  status: ('A' for Active; 'I' for Inactive)
REMARK    1  A    between atoms: C_3  and  O_23
REMARK    2  A    between atoms: C_4  and  O_22
REMARK    3  A    between atoms: C_6  and  C_7
REMARK    4  A    between atoms: C_7  and  C_8
REMARK    5  A    between atoms: C_8  and  O_21
REMARK    6  A    between atoms: C_15  and  O_18
REMARK    7  A    between atoms: C_16  and  O_17
REMARK                            x       y       z     vdW  Elec       q    Type
REMARK                         _______ _______ _______ _____ _____    ______ ____
ROOT
ATOM      1  C   UNL     1      -1.746  -1.026  -1.429  0.00  0.00    +0.166 C 
ATOM      2  C   UNL     1      -3.150  -1.648  -1.435  0.00  0.00    +0.272 C 
ATOM      3  O   UNL     1      -4.068  -0.747  -0.817  0.00  0.00    -0.484 OA
ATOM      4  C   UNL     1      -4.122   0.532  -1.259  0.00  0.00    +0.176 A 
ATOM      5  C   UNL     1      -3.034   1.105  -1.940  0.00  0.00    +0.066 A 
ATOM      6  C   UNL     1      -3.097   2.430  -2.383  0.00  0.00    +0.019 A 
ATOM      7  C   UNL     1      -4.224   3.170  -2.158  0.00  0.00    +0.050 A 
ATOM      8  C   UNL     1      -5.309   2.611  -1.490  0.00  0.00    +0.162 A 
ATOM      9  C   UNL     1      -5.261   1.296  -1.040  0.00  0.00    +0.202 A 
ATOM     10  C   UNL     1      -1.835   0.289  -2.182  0.00  0.00    +0.202 C 
ATOM     11  O   UNL     1      -0.961   0.649  -2.944  0.00  0.00    -0.289 OA
ENDROOT
BRANCH   9  12
ATOM     12  O   UNL     1      -6.328   0.759  -0.388  0.00  0.00    -0.501 OA
ATOM     13  H   UNL     1      -6.303   0.879   0.572  0.00  0.00    +0.292 HD
ENDBRANCH   9  12
BRANCH   8  14
ATOM     14  O   UNL     1      -6.423   3.356  -1.275  0.00  0.00    -0.503 OA
ATOM     15  H   UNL     1      -7.079   3.297  -1.983  0.00  0.00    +0.292 HD
ENDBRANCH   8  14
BRANCH   1  16
ATOM     16  O   UNL     1      -0.823  -1.899  -2.083  0.00  0.00    -0.377 OA
ATOM     17  H   UNL     1      -1.053  -2.100  -3.001  0.00  0.00    +0.211 HD
ENDBRANCH   1  16
BRANCH   1  18
ATOM     18  C   UNL     1      -1.294  -0.774   0.010  0.00  0.00    +0.081 C 
BRANCH  18  24
ATOM     19  C   UNL     1      -0.017   1.378   0.010  0.00  0.00    +0.007 A 
ATOM     20  C   UNL     1       1.170   2.089   0.002  0.00  0.00    +0.049 A 
ATOM     21  C   UNL     1       2.380   1.415  -0.013  0.00  0.00    +0.158 A 
ATOM     22  C   UNL     1       2.399   0.024  -0.021  0.00  0.00    +0.158 A 
ATOM     23  C   UNL     1       1.207  -0.682  -0.013  0.00  0.00    +0.053 A 
ATOM     24  C   UNL     1       0.002  -0.004   0.002  0.00  0.00    -0.040 A 
BRANCH  22  25
ATOM     25  O   UNL     1       3.585  -0.642  -0.036  0.00  0.00    -0.503 OA
ATOM     26  H   UNL     1       3.937  -0.839   0.843  0.00  0.00    +0.292 HD
ENDBRANCH  22  25
BRANCH  21  27
ATOM     27  O   UNL     1       3.548   2.113  -0.021  0.00  0.00    -0.503 OA
ATOM     28  H   UNL     1       3.894   2.310   0.860  0.00  0.00    +0.292 HD
ENDBRANCH  21  27
ENDBRANCH  18  24
ENDBRANCH   1  18
TORSDOF 7
