REMARK  Name = CHEMBL261641
REMARK  9 active torsions:
REMARK  status: ('A' for Active; 'I' for Inactive)
REMARK    1  A    between atoms: C_1  and  C_2
REMARK    2  A    between atoms: C_3  and  C_18
REMARK    3  A    between atoms: C_6  and  C_17
REMARK    4  A    between atoms: C_7  and  C_8
REMARK    5  A    between atoms: N_13  and  C_16
REMARK    6  A    between atoms: C_22  and  S_29
REMARK    7  A    between atoms: S_29  and  N_32
REMARK    8  A    between atoms: N_32  and  C_33
REMARK    9  A    between atoms: N_32  and  C_34
REMARK                            x       y       z     vdW  Elec       q    Type
REMARK                         _______ _______ _______ _____ _____    ______ ____
ROOT
ATOM      1  C   UNL     1       0.144  -0.572  -2.485  0.00  0.00    +0.039 C 
ATOM      2  C   UNL     1       0.253  -1.466  -3.531  0.00  0.00    +0.048 C 
ATOM      3  C   UNL     1       0.336  -1.155  -4.976  0.00  0.00    +0.010 A 
ATOM      4  C   UNL     1       0.332   0.034  -5.697  0.00  0.00    +0.039 A 
ATOM      5  C   UNL     1       0.425  -0.001  -7.074  0.00  0.00    +0.109 A 
ATOM      6  C   UNL     1       0.522  -1.215  -7.733  0.00  0.00    +0.030 A 
ATOM      7  C   UNL     1       0.527  -2.400  -7.026  0.00  0.00    +0.026 A 
ATOM      8  C   UNL     1       0.434  -2.386  -5.639  0.00  0.00    +0.042 A 
ATOM      9  N   UNL     1       0.417  -3.412  -4.702  0.00  0.00    -0.281 N 
ATOM     10  C   UNL     1       0.319  -2.931  -3.451  0.00  0.00    +0.249 C 
ATOM     11  O   UNL     1       0.287  -3.595  -2.430  0.00  0.00    -0.270 OA
ATOM     12  H   UNL     1       0.473  -4.355  -4.923  0.00  0.00    +0.155 HD
ENDROOT
BRANCH   1  15
ATOM     13  C   UNL     1      -1.385   0.667  -0.077  0.00  0.00    +0.047 C 
ATOM     14  C   UNL     1      -0.432  -0.500  -0.065  0.00  0.00    -0.013 A 
ATOM     15  C   UNL     1       0.234  -1.030  -1.152  0.00  0.00    +0.044 A 
ATOM     16  N   UNL     1       1.004  -2.085  -0.708  0.00  0.00    -0.358 N 
ATOM     17  H   UNL     1       1.575  -2.637  -1.265  0.00  0.00    +0.166 HD
ATOM     18  C   UNL     1       0.837  -2.228   0.618  0.00  0.00    +0.026 A 
ATOM     19  C   UNL     1      -0.045  -1.258   1.061  0.00  0.00    +0.061 A 
ATOM     20  C   UNL     1       1.504  -3.268   1.480  0.00  0.00    +0.064 C 
BRANCH  19  21
ATOM     21  C   UNL     1      -0.497  -1.057   2.449  0.00  0.00    +0.249 C 
ATOM     22  O   UNL     1      -1.489  -1.633   2.855  0.00  0.00    -0.270 OA
ATOM     23  N   UNL     1       0.187  -0.235   3.268  0.00  0.00    -0.295 N 
ATOM     24  C   UNL     1       1.385   0.476   2.796  0.00  0.00    +0.123 C 
ATOM     25  C   UNL     1       1.232   1.964   3.128  0.00  0.00    +0.103 C 
ATOM     26  N   UNL     1       0.944   2.115   4.561  0.00  0.00    -0.302 NA
ATOM     27  C   UNL     1      -0.333   1.483   4.918  0.00  0.00    +0.103 C 
ATOM     28  C   UNL     1      -0.247  -0.020   4.657  0.00  0.00    +0.123 C 
ATOM     29  C   UNL     1       0.960   3.530   4.954  0.00  0.00    +0.105 C 
ENDBRANCH  19  21
ENDBRANCH   1  15
BRANCH   5  30
ATOM     30  S   UNL     1       0.421   1.502  -7.994  0.00  0.00    +0.074 S 
ATOM     31  O   UNL     1      -0.030   1.176  -9.301  0.00  0.00    -0.150 OA
ATOM     32  O   UNL     1      -0.229   2.472  -7.184  0.00  0.00    -0.150 OA
BRANCH  30  33
ATOM     33  N   UNL     1       1.996   1.989  -8.144  0.00  0.00    -0.206 N 
ATOM     34  C   UNL     1       2.767   1.618  -9.334  0.00  0.00    +0.157 C 
BRANCH  33  35
ATOM     35  C   UNL     1       2.591   2.753  -7.137  0.00  0.00    +0.052 A 
ATOM     36  C   UNL     1       3.699   2.265  -6.456  0.00  0.00    +0.025 A 
ATOM     37  C   UNL     1       4.285   3.023  -5.461  0.00  0.00    +0.003 A 
ATOM     38  C   UNL     1       3.769   4.266  -5.141  0.00  0.00    +0.020 A 
ATOM     39  C   UNL     1       2.665   4.754  -5.817  0.00  0.00    +0.043 A 
ATOM     40  C   UNL     1       2.078   4.003  -6.818  0.00  0.00    +0.044 A 
ATOM     41 CL   UNL     1       2.021   6.314  -5.412  0.00  0.00    -0.083 Cl
ENDBRANCH  33  35
ENDBRANCH  30  33
ENDBRANCH   5  30
TORSDOF 5
