REMARK  Name = CHEMBL550305
REMARK  3 active torsions:
REMARK  status: ('A' for Active; 'I' for Inactive)
REMARK    1  A    between atoms: C_4  and  S_10
REMARK    2  A    between atoms: C_5  and  N_7
REMARK    3  A    between atoms: S_10  and  N_13
REMARK                            x       y       z     vdW  Elec       q    Type
REMARK                         _______ _______ _______ _____ _____    ______ ____
ROOT
ATOM      1  S   UNL     1       3.829  -0.970  -0.353  0.00  0.00    +0.086 S 
ATOM      2  O   UNL     1       3.532  -2.009  -1.275  0.00  0.00    -0.148 OA
ATOM      3  O   UNL     1       4.877  -0.035  -0.570  0.00  0.00    -0.148 OA
ENDROOT
BRANCH   1   4
ATOM      4  N   UNL     1       4.141  -1.701   1.100  0.00  0.00    -0.217 N 
ATOM      5  C   UNL     1       4.135  -3.050   1.318  0.00  0.00    +0.114 A 
ATOM      6  C   UNL     1       4.428  -3.308   2.603  0.00  0.00    +0.049 A 
ATOM      7  C   UNL     1       4.639  -2.018   3.264  0.00  0.00    +0.090 A 
ATOM      8  C   UNL     1       4.450  -1.042   2.268  0.00  0.00    +0.090 A 
ATOM      9  C   UNL     1       4.593   0.301   2.605  0.00  0.00    +0.031 A 
ATOM     10  C   UNL     1       4.920   0.617   3.912  0.00  0.00    +0.022 A 
ATOM     11  C   UNL     1       5.095  -0.397   4.840  0.00  0.00    +0.111 A 
ATOM     12  N   UNL     1       4.948  -1.661   4.507  0.00  0.00    -0.253 NA
ENDBRANCH   1   4
BRANCH   1  16
ATOM     13  C   UNL     1       0.029   1.438   0.147  0.00  0.00    +0.002 A 
ATOM     14  C   UNL     1       1.218   2.078  -0.151  0.00  0.00    +0.002 A 
ATOM     15  C   UNL     1       2.378   1.342  -0.303  0.00  0.00    +0.031 A 
ATOM     16  C   UNL     1       2.350  -0.032  -0.157  0.00  0.00    +0.141 A 
ATOM     17  C   UNL     1       1.161  -0.671   0.141  0.00  0.00    +0.153 A 
ATOM     18  C   UNL     1       0.000   0.064   0.292  0.00  0.00    +0.035 A 
BRANCH  17  19
ATOM     19  N   UNL     1       1.131  -2.143   0.296  0.00  0.00    +0.058 N 
ATOM     20  O   UNL     1       1.655  -2.849  -0.533  0.00  0.00    -0.126 OA
ATOM     21  O   UNL     1       0.581  -2.639   1.252  0.00  0.00    -0.126 OA
ENDBRANCH  17  19
ENDBRANCH   1  16
TORSDOF 3
