REMARK  Name = CHEMBL462707
REMARK  6 active torsions:
REMARK  status: ('A' for Active; 'I' for Inactive)
REMARK    1  A    between atoms: C_1  and  N_2
REMARK    2  A    between atoms: C_13  and  C_31
REMARK    3  A    between atoms: C_15  and  N_18
REMARK    4  A    between atoms: N_18  and  S_19
REMARK    5  A    between atoms: S_19  and  C_22
REMARK    6  A    between atoms: C_26  and  N_28
REMARK                            x       y       z     vdW  Elec       q    Type
REMARK                         _______ _______ _______ _____ _____    ______ ____
ROOT
ATOM      1  C   UNL     1       0.296   1.447   0.163  0.00  0.00    -0.096 C 
ATOM      2  N   UNL     1       0.155  -0.013   0.076  0.00  0.00    +0.380 N 
ATOM      3  C   UNL     1      -1.259  -0.376   0.234  0.00  0.00    -0.060 C 
ATOM      4  C   UNL     1      -1.423  -1.886   0.030  0.00  0.00    +0.088 C 
ATOM      5  N   UNL     1      -0.511  -2.583   0.950  0.00  0.00    -0.318 N 
ATOM      6  C   UNL     1       0.899  -2.167   0.975  0.00  0.00    +0.088 C 
ATOM      7  C   UNL     1       0.954  -0.644   1.134  0.00  0.00    -0.060 C 
ATOM      8  C   UNL     1      -0.969  -3.603   1.772  0.00  0.00    +0.140 A 
ATOM      9  C   UNL     1      -2.257  -4.131   1.577  0.00  0.00    +0.155 A 
ATOM     10  N   UNL     1      -2.706  -5.095   2.344  0.00  0.00    -0.250 NA
ATOM     11  C   UNL     1      -1.933  -5.584   3.322  0.00  0.00    +0.092 A 
ATOM     12  C   UNL     1      -2.392  -6.618   4.157  0.00  0.00    +0.042 A 
ATOM     13  C   UNL     1      -1.592  -7.102   5.146  0.00  0.00    +0.059 A 
ATOM     14  C   UNL     1      -0.314  -6.590   5.351  0.00  0.00    +0.041 A 
ATOM     15  C   UNL     1       0.173  -5.576   4.555  0.00  0.00    +0.102 A 
ATOM     16  C   UNL     1      -0.635  -5.055   3.521  0.00  0.00    +0.116 A 
ATOM     17  N   UNL     1      -0.190  -4.075   2.727  0.00  0.00    -0.227 NA
ATOM     18  H   UNL     1       0.482  -0.328  -0.824  0.00  0.00    -0.082 HD
ENDROOT
BRANCH  13  19
ATOM     19  C   UNL     1      -2.098  -8.210   6.034  0.00  0.00    +0.418 C 
ATOM     20  F   UNL     1      -3.395  -8.562   5.647  0.00  0.00    -0.166 F 
ATOM     21  F   UNL     1      -1.258  -9.322   5.916  0.00  0.00    -0.166 F 
ATOM     22  F   UNL     1      -2.110  -7.773   7.363  0.00  0.00    -0.166 F 
ENDBRANCH  13  19
BRANCH  15  23
ATOM     23  N   UNL     1       1.455  -5.069   4.768  0.00  0.00    -0.096 NA
BRANCH  23  24
ATOM     24  S   UNL     1       2.397  -5.686   5.982  0.00  0.00    +0.092 S 
ATOM     25  O   UNL     1       1.760  -5.343   7.205  0.00  0.00    -0.148 OA
ATOM     26  O   UNL     1       2.690  -7.030   5.626  0.00  0.00    -0.148 OA
BRANCH  24  27
ATOM     27  C   UNL     1       3.927  -4.812   5.948  0.00  0.00    +0.113 A 
ATOM     28  C   UNL     1       4.972  -5.277   5.172  0.00  0.00    +0.029 A 
ATOM     29  C   UNL     1       6.172  -4.592   5.146  0.00  0.00    +0.004 A 
ATOM     30  C   UNL     1       6.327  -3.441   5.896  0.00  0.00    +0.033 A 
ATOM     31  C   UNL     1       5.282  -2.975   6.671  0.00  0.00    +0.128 A 
ATOM     32  C   UNL     1       4.080  -3.658   6.694  0.00  0.00    +0.061 A 
BRANCH  31  33
ATOM     33  N   UNL     1       5.448  -1.743   7.474  0.00  0.00    +0.056 N 
ATOM     34  O   UNL     1       6.498  -1.144   7.452  0.00  0.00    -0.126 OA
ATOM     35  O   UNL     1       4.534  -1.335   8.153  0.00  0.00    -0.126 OA
ENDBRANCH  31  33
ENDBRANCH  24  27
ENDBRANCH  23  24
ENDBRANCH  15  23
TORSDOF 5
