REMARK  Name = CHEMBL510316
REMARK  5 active torsions:
REMARK  status: ('A' for Active; 'I' for Inactive)
REMARK    1  A    between atoms: C_3  and  N_7
REMARK    2  A    between atoms: C_11  and  C_14
REMARK    3  A    between atoms: N_16  and  C_17
REMARK    4  A    between atoms: C_20  and  O_24
REMARK    5  A    between atoms: O_24  and  C_25
REMARK                            x       y       z     vdW  Elec       q    Type
REMARK                         _______ _______ _______ _____ _____    ______ ____
ROOT
ATOM      1  C   UNL     1       8.339  -0.995   0.320  0.00  0.00    +0.037 A 
ATOM      2  C   UNL     1       9.438  -0.372   0.896  0.00  0.00    +0.027 A 
ATOM      3  C   UNL     1      10.612  -1.075   1.082  0.00  0.00    +0.051 A 
ATOM      4  C   UNL     1      10.695  -2.404   0.694  0.00  0.00    +0.164 A 
ATOM      5  C   UNL     1       9.596  -3.029   0.117  0.00  0.00    +0.167 A 
ATOM      6  C   UNL     1       8.419  -2.327  -0.064  0.00  0.00    +0.065 A 
ATOM      7  F   UNL     1       9.677  -4.323  -0.261  0.00  0.00    -0.202 F 
ENDROOT
BRANCH   1  10
ATOM      8  C   UNL     1       6.789   0.673   1.012  0.00  0.00    +0.254 C 
ATOM      9  O   UNL     1       7.544   0.985   1.913  0.00  0.00    -0.270 OA
ATOM     10  N   UNL     1       7.149  -0.282   0.131  0.00  0.00    -0.281 N 
ATOM     11  H   UNL     1       6.584  -0.474  -0.633  0.00  0.00    +0.155 HD
BRANCH   8  16
ATOM     12  N   UNL     1       3.337   1.493  -0.162  0.00  0.00    -0.282 N 
ATOM     13  C   UNL     1       3.032   2.560   0.618  0.00  0.00    +0.095 A 
ATOM     14  C   UNL     1       3.916   3.039   1.530  0.00  0.00    +0.019 A 
ATOM     15  C   UNL     1       5.164   2.434   1.681  0.00  0.00    +0.020 A 
ATOM     16  C   UNL     1       5.483   1.337   0.883  0.00  0.00    +0.102 A 
ATOM     17  C   UNL     1       4.525   0.870  -0.053  0.00  0.00    +0.268 A 
ATOM     18  O   UNL     1       4.779  -0.091  -0.760  0.00  0.00    -0.267 OA
BRANCH  12  21
ATOM     19  C   UNL     1       0.770  -0.564  -1.802  0.00  0.00    +0.022 A 
ATOM     20  C   UNL     1       1.689  -0.146  -0.853  0.00  0.00    +0.029 A 
ATOM     21  C   UNL     1       2.397   1.029  -1.092  0.00  0.00    +0.068 A 
ATOM     22  C   UNL     1       2.159   1.734  -2.264  0.00  0.00    +0.137 A 
ATOM     23  N   UNL     1       1.276   1.300  -3.141  0.00  0.00    -0.261 NA
ATOM     24  C   UNL     1       0.588   0.192  -2.945  0.00  0.00    +0.111 A 
ENDBRANCH  12  21
ENDBRANCH   8  16
ENDBRANCH   1  10
BRANCH   4  25
ATOM     25  O   UNL     1      11.852  -3.095   0.877  0.00  0.00    -0.452 OA
BRANCH  25  26
ATOM     26  C   UNL     1      12.527  -3.509  -0.224  0.00  0.00    +0.141 A 
ATOM     27  C   UNL     1      12.124  -3.127  -1.498  0.00  0.00    +0.066 A 
ATOM     28  C   UNL     1      12.840  -3.569  -2.596  0.00  0.00    +0.117 A 
ATOM     29  N   UNL     1      13.896  -4.345  -2.467  0.00  0.00    -0.237 NA
ATOM     30  C   UNL     1      14.330  -4.744  -1.276  0.00  0.00    +0.142 A 
ATOM     31  C   UNL     1      13.658  -4.331  -0.112  0.00  0.00    +0.061 A 
ATOM     32  C   UNL     1      14.380  -4.928   1.012  0.00  0.00    +0.032 A 
ATOM     33  C   UNL     1      15.400  -5.628   0.491  0.00  0.00    +0.085 A 
ATOM     34  N   UNL     1      15.379  -5.535  -0.875  0.00  0.00    -0.346 N 
ATOM     35  H   UNL     1      16.017  -5.957  -1.472  0.00  0.00    +0.167 HD
ENDBRANCH  25  26
ENDBRANCH   4  25
TORSDOF 5
