REMARK  Name = CHEMBL409933
REMARK  9 active torsions:
REMARK  status: ('A' for Active; 'I' for Inactive)
REMARK    1  A    between atoms: C_1  and  C_2
REMARK    2  A    between atoms: C_2  and  C_4
REMARK    3  A    between atoms: C_2  and  N_10
REMARK    4  A    between atoms: C_21  and  O_23
REMARK    5  A    between atoms: O_23  and  C_24
REMARK    6  A    between atoms: C_31  and  O_36
REMARK    7  A    between atoms: C_32  and  O_34
REMARK    8  A    between atoms: O_34  and  C_35
REMARK    9  A    between atoms: O_36  and  C_37
REMARK                            x       y       z     vdW  Elec       q    Type
REMARK                         _______ _______ _______ _____ _____    ______ ____
ROOT
ATOM      1  N   UNL     1      -1.438  -0.315   2.345  0.00  0.00    -0.292 N 
ATOM      2  C   UNL     1      -2.037  -0.655   1.187  0.00  0.00    +0.307 C 
ATOM      3  O   UNL     1      -1.474  -0.450   0.129  0.00  0.00    -0.252 OA
ATOM      4  N   UNL     1      -3.259  -1.222   1.201  0.00  0.00    -0.249 N 
ATOM      5  C   UNL     1      -4.003  -1.398   2.460  0.00  0.00    +0.156 C 
ATOM      6  C   UNL     1      -4.650  -2.790   2.426  0.00  0.00    +0.248 C 
ATOM      7  O   UNL     1      -5.500  -2.876   1.280  0.00  0.00    -0.488 OA
ATOM      8  C   UNL     1      -4.987  -2.495   0.080  0.00  0.00    +0.145 A 
ATOM      9  C   UNL     1      -3.872  -1.663   0.012  0.00  0.00    +0.080 A 
ATOM     10  C   UNL     1      -3.363  -1.273  -1.216  0.00  0.00    +0.031 A 
ATOM     11  C   UNL     1      -3.965  -1.708  -2.382  0.00  0.00    +0.048 A 
ATOM     12  C   UNL     1      -5.077  -2.535  -2.321  0.00  0.00    +0.132 A 
ATOM     13  C   UNL     1      -5.584  -2.936  -1.091  0.00  0.00    +0.093 A 
ATOM     14  H   UNL     1      -1.916  -0.409   3.184  0.00  0.00    +0.151 HD
ENDROOT
BRANCH   1  16
ATOM     15  C   UNL     1       0.917  -0.976   2.345  0.00  0.00    +0.033 C 
ATOM     16  C   UNL     1      -0.065   0.197   2.338  0.00  0.00    +0.102 C 
BRANCH  16  17
ATOM     17  C   UNL     1       0.160   1.048   3.562  0.00  0.00    -0.027 A 
ATOM     18  C   UNL     1      -0.361   0.657   4.781  0.00  0.00    +0.005 A 
ATOM     19  C   UNL     1      -0.154   1.437   5.903  0.00  0.00    +0.000 A 
ATOM     20  C   UNL     1       0.574   2.608   5.806  0.00  0.00    +0.000 A 
ATOM     21  C   UNL     1       1.095   2.999   4.587  0.00  0.00    +0.000 A 
ATOM     22  C   UNL     1       0.892   2.216   3.465  0.00  0.00    +0.005 A 
ENDBRANCH  16  17
ENDBRANCH   1  16
BRANCH  12  23
ATOM     23  O   UNL     1      -5.666  -2.964  -3.469  0.00  0.00    -0.455 OA
BRANCH  23  24
ATOM     24  C   UNL     1      -6.838  -2.388  -3.836  0.00  0.00    +0.139 A 
ATOM     25  C   UNL     1      -7.468  -1.467  -3.017  0.00  0.00    +0.066 A 
ATOM     26  C   UNL     1      -8.667  -0.894  -3.420  0.00  0.00    +0.115 A 
ATOM     27  N   UNL     1      -9.230  -1.200  -4.565  0.00  0.00    -0.255 NA
ATOM     28  C   UNL     1      -8.677  -2.082  -5.405  0.00  0.00    +0.078 A 
ATOM     29  C   UNL     1      -7.450  -2.706  -5.069  0.00  0.00    +0.046 A 
ATOM     30  C   UNL     1      -6.870  -3.626  -5.955  0.00  0.00    +0.063 A 
ATOM     31  C   UNL     1      -7.490  -3.909  -7.137  0.00  0.00    +0.162 A 
ATOM     32  C   UNL     1      -8.702  -3.289  -7.475  0.00  0.00    +0.164 A 
ATOM     33  C   UNL     1      -9.293  -2.398  -6.628  0.00  0.00    +0.077 A 
BRANCH  32  34
ATOM     34  O   UNL     1      -9.300  -3.588  -8.659  0.00  0.00    -0.491 OA
ATOM     35  C   UNL     1     -10.532  -2.925  -8.948  0.00  0.00    +0.277 C 
ENDBRANCH  32  34
BRANCH  31  36
ATOM     36  O   UNL     1      -6.927  -4.801  -7.995  0.00  0.00    -0.491 OA
ATOM     37  C   UNL     1      -5.693  -5.399  -7.593  0.00  0.00    +0.277 C 
ENDBRANCH  31  36
ENDBRANCH  23  24
ENDBRANCH  12  23
TORSDOF 6
