REMARK  Name = CHEMBL494985
REMARK  6 active torsions:
REMARK  status: ('A' for Active; 'I' for Inactive)
REMARK    1  A    between atoms: C_1  and  N_2
REMARK    2  A    between atoms: C_3  and  C_5
REMARK    3  A    between atoms: C_8  and  C_12
REMARK    4  A    between atoms: C_18  and  C_21
REMARK    5  A    between atoms: C_21  and  C_22
REMARK    6  A    between atoms: C_25  and  O_28
REMARK                            x       y       z     vdW  Elec       q    Type
REMARK                         _______ _______ _______ _____ _____    ______ ____
ROOT
ATOM      1  C   UNL     1       0.681  -6.409   0.971  0.00  0.00    +0.092 A 
ATOM      2  C   UNL     1       1.303  -7.105   2.029  0.00  0.00    +0.034 A 
ATOM      3  C   UNL     1       1.327  -8.464   2.031  0.00  0.00    +0.052 A 
ATOM      4  C   UNL     1       0.724  -9.162   0.968  0.00  0.00    +0.178 A 
ATOM      5  N   UNL     1       0.579 -10.444   0.680  0.00  0.00    -0.128 NA
ATOM      6  N   UNL     1      -0.061 -10.564  -0.431  0.00  0.00    -0.132 NA
ATOM      7  C   UNL     1      -0.359  -9.383  -0.913  0.00  0.00    +0.159 A 
ATOM      8  N   UNL     1       0.125  -8.456  -0.050  0.00  0.00    -0.196 N 
ATOM      9  N   UNL     1       0.113  -7.060  -0.020  0.00  0.00    -0.163 NA
ENDROOT
BRANCH   1  13
ATOM     10  C   UNL     1       0.624  -2.152   0.995  0.00  0.00    +0.055 A 
ATOM     11  C   UNL     1       0.024  -2.854  -0.053  0.00  0.00    +0.015 A 
ATOM     12  C   UNL     1       0.043  -4.230  -0.060  0.00  0.00    +0.011 A 
ATOM     13  C   UNL     1       0.662  -4.926   0.980  0.00  0.00    +0.003 A 
ATOM     14  C   UNL     1       1.261  -4.228   2.027  0.00  0.00    +0.030 A 
ATOM     15  C   UNL     1       1.249  -2.849   2.034  0.00  0.00    +0.054 A 
ATOM     16 CL   UNL     1       2.002  -1.980   3.334  0.00  0.00    -0.083 Cl
BRANCH  10  19
ATOM     17  C   UNL     1      -0.018   1.461   0.010  0.00  0.00    +0.128 C 
ATOM     18  N   UNL     1       0.002  -0.004   0.002  0.00  0.00    -0.314 N 
ATOM     19  C   UNL     1       0.604  -0.675   1.004  0.00  0.00    +0.245 C 
ATOM     20  O   UNL     1       1.131  -0.065   1.914  0.00  0.00    -0.270 OA
ATOM     21  H   UNL     1      -0.418  -0.491  -0.724  0.00  0.00    +0.149 HD
ENDBRANCH  10  19
ENDBRANCH   1  13
BRANCH   7  22
ATOM     22  C   UNL     1      -1.102  -9.106  -2.194  0.00  0.00    +0.113 C 
BRANCH  22  23
ATOM     23  C   UNL     1      -2.581  -9.034  -1.911  0.00  0.00    -0.040 A 
ATOM     24  C   UNL     1      -3.353 -10.179  -1.975  0.00  0.00    +0.007 A 
ATOM     25  C   UNL     1      -4.708 -10.115  -1.716  0.00  0.00    +0.045 A 
ATOM     26  C   UNL     1      -5.295  -8.900  -1.392  0.00  0.00    +0.117 A 
ATOM     27  C   UNL     1      -4.518  -7.753  -1.328  0.00  0.00    +0.045 A 
ATOM     28  C   UNL     1      -3.162  -7.823  -1.582  0.00  0.00    +0.007 A 
BRANCH  26  29
ATOM     29  O   UNL     1      -6.628  -8.835  -1.138  0.00  0.00    -0.507 OA
ATOM     30  H   UNL     1      -6.858  -8.969  -0.208  0.00  0.00    +0.292 HD
ENDBRANCH  26  29
ENDBRANCH  22  23
ENDBRANCH   7  22
TORSDOF 5
