REMARK  Name = CHEMBL551458
REMARK  4 active torsions:
REMARK  status: ('A' for Active; 'I' for Inactive)
REMARK    1  A    between atoms: C_1  and  N_2
REMARK    2  A    between atoms: C_11  and  C_14
REMARK    3  A    between atoms: N_20  and  S_21
REMARK    4  A    between atoms: S_21  and  C_24
REMARK                            x       y       z     vdW  Elec       q    Type
REMARK                         _______ _______ _______ _____ _____    ______ ____
ROOT
ATOM      1  C   UNL     1      -2.241  -6.912   3.942  0.00  0.00    +0.004 A 
ATOM      2  C   UNL     1      -1.373  -7.462   4.885  0.00  0.00    +0.039 A 
ATOM      3  C   UNL     1      -1.828  -8.523   5.657  0.00  0.00    +0.091 A 
ATOM      4  C   UNL     1      -3.139  -9.000   5.461  0.00  0.00    +0.090 A 
ATOM      5  C   UNL     1      -3.310 -10.101   6.410  0.00  0.00    +0.049 A 
ATOM      6  C   UNL     1      -2.156 -10.220   7.089  0.00  0.00    +0.114 A 
ATOM      7  N   UNL     1      -1.260  -9.286   6.653  0.00  0.00    -0.217 N 
ATOM      8  N   UNL     1      -3.933  -8.444   4.548  0.00  0.00    -0.253 NA
ATOM      9  C   UNL     1      -3.530  -7.436   3.808  0.00  0.00    +0.120 A 
ENDROOT
BRANCH   1  20
ATOM     10  C   UNL     1       1.598  -1.057  -2.498  0.00  0.00    +0.105 C 
ATOM     11  N   UNL     1       0.823  -1.284  -1.272  0.00  0.00    -0.302 NA
ATOM     12  C   UNL     1       1.632  -1.972  -0.257  0.00  0.00    +0.103 C 
ATOM     13  C   UNL     1       0.853  -2.029   1.061  0.00  0.00    +0.122 C 
ATOM     14  N   UNL     1      -0.463  -2.633   0.801  0.00  0.00    -0.314 N 
ATOM     15  C   UNL     1      -1.276  -2.084  -0.295  0.00  0.00    +0.122 C 
ATOM     16  C   UNL     1      -0.413  -2.025  -1.560  0.00  0.00    +0.103 C 
ATOM     17  C   UNL     1      -0.925  -3.694   1.570  0.00  0.00    +0.099 A 
ATOM     18  C   UNL     1      -2.222  -4.165   1.382  0.00  0.00    +0.042 A 
ATOM     19  C   UNL     1      -2.674  -5.220   2.149  0.00  0.00    +0.013 A 
ATOM     20  C   UNL     1      -1.803  -5.778   3.093  0.00  0.00    -0.000 A 
ATOM     21  C   UNL     1      -0.520  -5.253   3.223  0.00  0.00    +0.092 A 
ATOM     22  N   UNL     1      -0.125  -4.248   2.468  0.00  0.00    -0.349 N 
ATOM     23  H   UNL     1       0.775  -3.902   2.575  0.00  0.00    +0.167 HD
ENDBRANCH   1  20
BRANCH   7  24
ATOM     24  S   UNL     1       0.280  -9.099   7.234  0.00  0.00    +0.086 S 
ATOM     25  O   UNL     1       0.445  -7.715   7.510  0.00  0.00    -0.148 OA
ATOM     26  O   UNL     1       0.464 -10.100   8.225  0.00  0.00    -0.148 OA
BRANCH  24  27
ATOM     27  C   UNL     1       1.384  -9.485   5.916  0.00  0.00    +0.142 A 
ATOM     28  C   UNL     1       2.191  -8.528   5.403  0.00  0.00    +0.031 A 
ATOM     29  C   UNL     1       3.082  -8.795   4.356  0.00  0.00    +0.004 A 
ATOM     30  C   UNL     1       3.184 -10.025   3.802  0.00  0.00    +0.033 A 
ATOM     31  C   UNL     1       2.371 -11.082   4.285  0.00  0.00    +0.136 A 
ATOM     32  C   UNL     1       1.436 -10.802   5.392  0.00  0.00    +0.161 A 
ATOM     33  N   UNL     1       0.797 -11.913   5.678  0.00  0.00    -0.047 NA
ATOM     34  O   UNL     1       1.273 -12.926   4.809  0.00  0.00    -0.242 OA
ATOM     35  N   UNL     1       2.248 -12.348   3.958  0.00  0.00    -0.049 NA
ENDBRANCH  24  27
ENDBRANCH   7  24
TORSDOF 3
