REMARK  Name = CHEMBL508142
REMARK  9 active torsions:
REMARK  status: ('A' for Active; 'I' for Inactive)
REMARK    1  A    between atoms: C_1  and  N_2
REMARK    2  A    between atoms: N_5  and  C_8
REMARK    3  A    between atoms: C_8  and  C_9
REMARK    4  A    between atoms: C_9  and  C_11
REMARK    5  A    between atoms: C_17  and  O_21
REMARK    6  A    between atoms: O_21  and  C_22
REMARK    7  A    between atoms: C_25  and  N_29
REMARK    8  A    between atoms: C_33  and  C_35
REMARK    9  A    between atoms: C_35  and  C_36
REMARK                            x       y       z     vdW  Elec       q    Type
REMARK                         _______ _______ _______ _____ _____    ______ ____
ROOT
ATOM      1  C   UNL     1       1.470  -4.191   6.694  0.00  0.00    +0.164 A 
ATOM      2  C   UNL     1       0.538  -3.933   7.687  0.00  0.00    +0.051 A 
ATOM      3  C   UNL     1       0.956  -3.530   8.940  0.00  0.00    +0.027 A 
ATOM      4  C   UNL     1       2.310  -3.383   9.206  0.00  0.00    +0.038 A 
ATOM      5  C   UNL     1       3.245  -3.642   8.213  0.00  0.00    +0.065 A 
ATOM      6  C   UNL     1       2.826  -4.051   6.960  0.00  0.00    +0.167 A 
ATOM      7  F   UNL     1       3.736  -4.308   5.995  0.00  0.00    -0.202 F 
ENDROOT
BRANCH   4   8
ATOM      8  N   UNL     1       2.734  -2.974  10.478  0.00  0.00    -0.269 N 
ATOM      9  C   UNL     1       2.061  -3.377  11.574  0.00  0.00    +0.310 C 
ATOM     10  O   UNL     1       1.047  -4.035  11.457  0.00  0.00    -0.252 OA
ATOM     11  N   UNL     1       2.514  -3.049  12.800  0.00  0.00    -0.240 N 
ATOM     12  C   UNL     1       1.841  -3.451  13.897  0.00  0.00    +0.225 C 
ATOM     13  O   UNL     1       0.829  -4.108  13.780  0.00  0.00    -0.275 OA
ATOM     14  H   UNL     1       3.511  -2.401  10.569  0.00  0.00    +0.156 HD
ATOM     15  H   UNL     1       3.324  -2.523  12.894  0.00  0.00    +0.159 HD
BRANCH  12  16
ATOM     16  C   UNL     1       2.347  -3.084  15.268  0.00  0.00    +0.131 C 
BRANCH  16  17
ATOM     17  C   UNL     1       1.422  -3.652  16.313  0.00  0.00    -0.038 A 
ATOM     18  C   UNL     1       0.345  -2.909  16.759  0.00  0.00    +0.007 A 
ATOM     19  C   UNL     1      -0.505  -3.428  17.717  0.00  0.00    +0.038 A 
ATOM     20  C   UNL     1      -0.277  -4.693  18.231  0.00  0.00    +0.123 A 
ATOM     21  C   UNL     1       0.802  -5.437  17.784  0.00  0.00    +0.038 A 
ATOM     22  C   UNL     1       1.647  -4.918  16.822  0.00  0.00    +0.007 A 
ATOM     23  F   UNL     1      -1.107  -5.202  19.168  0.00  0.00    -0.205 F 
ENDBRANCH  16  17
ENDBRANCH  12  16
ENDBRANCH   4   8
BRANCH   1  24
ATOM     24  O   UNL     1       1.058  -4.588   5.460  0.00  0.00    -0.452 OA
BRANCH  24  31
ATOM     25  C   UNL     1      -0.078  -5.761   2.790  0.00  0.00    +0.049 A 
ATOM     26  C   UNL     1      -0.418  -6.780   1.942  0.00  0.00    +0.096 A 
ATOM     27  N   UNL     1      -0.138  -7.970   2.524  0.00  0.00    -0.345 N 
ATOM     28  H   UNL     1      -0.293  -8.835   2.114  0.00  0.00    +0.167 HD
ATOM     29  C   UNL     1       0.397  -7.782   3.779  0.00  0.00    +0.142 A 
ATOM     30  C   UNL     1       0.466  -6.399   4.003  0.00  0.00    +0.071 A 
ATOM     31  C   UNL     1       0.981  -5.920   5.212  0.00  0.00    +0.141 A 
ATOM     32  C   UNL     1       1.412  -6.851   6.151  0.00  0.00    +0.067 A 
ATOM     33  C   UNL     1       1.317  -8.199   5.859  0.00  0.00    +0.117 A 
ATOM     34  N   UNL     1       0.821  -8.624   4.715  0.00  0.00    -0.237 NA
BRANCH  25  35
ATOM     35  C   UNL     1      -0.216  -4.371   2.549  0.00  0.00    +0.179 C 
ATOM     36  O   UNL     1       0.133  -3.571   3.393  0.00  0.00    -0.291 OA
BRANCH  35  37
ATOM     37  C   UNL     1      -0.796  -3.887   1.245  0.00  0.00    +0.164 C 
BRANCH  37  42
ATOM     38  C   UNL     1      -0.368   1.630   0.180  0.00  0.00    -0.096 C 
ATOM     39  N   UNL     1      -0.306   0.163   0.136  0.00  0.00    +0.379 N 
ATOM     40  C   UNL     1      -1.668  -0.386   0.162  0.00  0.00    -0.064 C 
ATOM     41  C   UNL     1      -1.604  -1.914   0.096  0.00  0.00    +0.066 C 
ATOM     42  N   UNL     1      -0.833  -2.418   1.241  0.00  0.00    -0.299 NA
ATOM     43  C   UNL     1       0.526  -1.858   1.243  0.00  0.00    +0.066 C 
ATOM     44  C   UNL     1       0.444  -0.331   1.299  0.00  0.00    -0.064 C 
ATOM     45  H   UNL     1       0.158  -0.129  -0.711  0.00  0.00    -0.082 HD
ENDBRANCH  37  42
ENDBRANCH  35  37
ENDBRANCH  25  35
ENDBRANCH  24  31
ENDBRANCH   1  24
TORSDOF 8
