REMARK  Name = CHEMBL500834
REMARK  15 active torsions:
REMARK  status: ('A' for Active; 'I' for Inactive)
REMARK    1  A    between atoms: C_1  and  N_2
REMARK    2  A    between atoms: C_5  and  C_23
REMARK    3  A    between atoms: C_8  and  C_9
REMARK    4  A    between atoms: C_9  and  C_10
REMARK    5  A    between atoms: C_9  and  N_16
REMARK    6  A    between atoms: C_17  and  C_19
REMARK    7  A    between atoms: C_19  and  N_20
REMARK    8  A    between atoms: N_20  and  C_21
REMARK    9  A    between atoms: N_20  and  C_22
REMARK   10  A    between atoms: C_26  and  O_30
REMARK   11  A    between atoms: O_30  and  C_31
REMARK   12  A    between atoms: C_38  and  O_43
REMARK   13  A    between atoms: C_39  and  O_41
REMARK   14  A    between atoms: O_41  and  C_42
REMARK   15  A    between atoms: O_43  and  C_44
REMARK                            x       y       z     vdW  Elec       q    Type
REMARK                         _______ _______ _______ _____ _____    ______ ____
ROOT
ATOM      1  C   UNL     1      -0.140   1.462   0.019  0.00  0.00    +0.154 C 
ATOM      2  N   UNL     1      -0.053  -0.000   0.004  0.00  0.00    -0.298 N 
ATOM      3  C   UNL     1      -0.152  -0.669  -1.165  0.00  0.00    +0.262 A 
ATOM      4  O   UNL     1      -0.314  -0.071  -2.214  0.00  0.00    -0.267 OA
ATOM      5  C   UNL     1      -0.064  -2.087  -1.142  0.00  0.00    +0.065 A 
ATOM      6  C   UNL     1       0.121  -2.712   0.079  0.00  0.00    +0.126 A 
ATOM      7  N   UNL     1       0.209  -1.979   1.188  0.00  0.00    -0.239 NA
ATOM      8  C   UNL     1       0.131  -0.675   1.156  0.00  0.00    +0.137 A 
ENDROOT
BRANCH   5   9
ATOM      9  C   UNL     1      -0.166  -2.876  -2.393  0.00  0.00    -0.008 A 
ATOM     10  C   UNL     1       0.815  -2.755  -3.377  0.00  0.00    +0.012 A 
ATOM     11  C   UNL     1       0.718  -3.489  -4.540  0.00  0.00    +0.050 A 
ATOM     12  C   UNL     1      -0.355  -4.349  -4.733  0.00  0.00    +0.164 A 
ATOM     13  C   UNL     1      -1.335  -4.472  -3.755  0.00  0.00    +0.166 A 
ATOM     14  C   UNL     1      -1.240  -3.744  -2.585  0.00  0.00    +0.050 A 
ATOM     15  F   UNL     1      -2.378  -5.309  -3.945  0.00  0.00    -0.202 F 
BRANCH  12  16
ATOM     16  O   UNL     1      -0.447  -5.071  -5.880  0.00  0.00    -0.452 OA
BRANCH  16  17
ATOM     17  C   UNL     1      -1.181  -4.559  -6.898  0.00  0.00    +0.139 A 
ATOM     18  C   UNL     1      -1.903  -3.388  -6.738  0.00  0.00    +0.066 A 
ATOM     19  C   UNL     1      -2.646  -2.887  -7.798  0.00  0.00    +0.115 A 
ATOM     20  N   UNL     1      -2.688  -3.493  -8.962  0.00  0.00    -0.255 NA
ATOM     21  C   UNL     1      -2.015  -4.627  -9.187  0.00  0.00    +0.078 A 
ATOM     22  C   UNL     1      -1.229  -5.199  -8.156  0.00  0.00    +0.046 A 
ATOM     23  C   UNL     1      -0.520  -6.386  -8.397  0.00  0.00    +0.063 A 
ATOM     24  C   UNL     1      -0.590  -6.977  -9.624  0.00  0.00    +0.162 A 
ATOM     25  C   UNL     1      -1.363  -6.410 -10.649  0.00  0.00    +0.164 A 
ATOM     26  C   UNL     1      -2.071  -5.263 -10.438  0.00  0.00    +0.077 A 
BRANCH  25  27
ATOM     27  O   UNL     1      -1.416  -7.018 -11.863  0.00  0.00    -0.491 OA
ATOM     28  C   UNL     1      -2.219  -6.394 -12.866  0.00  0.00    +0.277 C 
ENDBRANCH  25  27
BRANCH  24  29
ATOM     29  O   UNL     1       0.097  -8.127  -9.857  0.00  0.00    -0.491 OA
ATOM     30  C   UNL     1       0.866  -8.654  -8.774  0.00  0.00    +0.277 C 
ENDBRANCH  24  29
ENDBRANCH  16  17
ENDBRANCH  12  16
ENDBRANCH   5   9
BRANCH   8  31
ATOM     31  C   UNL     1       0.244   0.097   2.446  0.00  0.00    +0.169 C 
BRANCH  31  32
ATOM     32  C   UNL     1       1.699   0.287   2.791  0.00  0.00    -0.020 A 
ATOM     33  C   UNL     1       2.410  -0.743   3.379  0.00  0.00    +0.006 A 
ATOM     34  C   UNL     1       3.744  -0.569   3.695  0.00  0.00    +0.000 A 
ATOM     35  C   UNL     1       4.368   0.635   3.424  0.00  0.00    +0.000 A 
ATOM     36  C   UNL     1       3.657   1.664   2.836  0.00  0.00    +0.000 A 
ATOM     37  C   UNL     1       2.324   1.488   2.515  0.00  0.00    +0.006 A 
ENDBRANCH  31  32
BRANCH  31  38
ATOM     38  N   UNL     1      -0.419  -0.646   3.520  0.00  0.00    -0.303 N 
ATOM     39  C   UNL     1      -0.894   0.008   4.598  0.00  0.00    +0.197 C 
ATOM     40  O   UNL     1      -0.772   1.212   4.679  0.00  0.00    -0.278 OA
ATOM     41  H   UNL     1      -0.517  -1.609   3.455  0.00  0.00    +0.150 HD
BRANCH  39  42
ATOM     42  C   UNL     1      -1.577  -0.756   5.703  0.00  0.00    +0.018 C 
BRANCH  42  43
ATOM     43  N   UNL     1      -2.000   0.177   6.755  0.00  0.00    +0.382 N 
ATOM     44  C   UNL     1      -2.770  -0.549   7.774  0.00  0.00    -0.096 C 
ATOM     45  C   UNL     1      -0.815   0.784   7.377  0.00  0.00    -0.096 C 
ATOM     46  H   UNL     1      -2.575   0.901   6.351  0.00  0.00    -0.082 HD
ENDBRANCH  42  43
ENDBRANCH  39  42
ENDBRANCH  31  38
ENDBRANCH   8  31
TORSDOF 10
