REMARK  Name = CHEMBL567908
REMARK  7 active torsions:
REMARK  status: ('A' for Active; 'I' for Inactive)
REMARK    1  A    between atoms: C_1  and  C_2
REMARK    2  A    between atoms: C_4  and  C_7
REMARK    3  A    between atoms: C_13  and  C_16
REMARK    4  A    between atoms: C_16  and  O_17
REMARK    5  A    between atoms: O_17  and  C_18
REMARK    6  A    between atoms: C_26  and  O_28
REMARK    7  A    between atoms: O_28  and  C_29
REMARK                            x       y       z     vdW  Elec       q    Type
REMARK                         _______ _______ _______ _____ _____    ______ ____
ROOT
ATOM      1  C   UNL     1       0.032  -3.085  -2.158  0.00  0.00    +0.100 A 
ATOM      2  C   UNL     1       0.047  -4.455  -1.814  0.00  0.00    +0.034 A 
ATOM      3  C   UNL     1       0.054  -5.402  -2.788  0.00  0.00    +0.052 A 
ATOM      4  C   UNL     1       0.047  -4.999  -4.137  0.00  0.00    +0.178 A 
ATOM      5  N   UNL     1       0.050  -5.653  -5.287  0.00  0.00    -0.128 NA
ATOM      6  N   UNL     1       0.039  -4.807  -6.258  0.00  0.00    -0.129 NA
ATOM      7  C   UNL     1       0.028  -3.583  -5.791  0.00  0.00    +0.192 A 
ATOM      8  N   UNL     1       0.032  -3.659  -4.442  0.00  0.00    -0.193 N 
ATOM      9  N   UNL     1       0.020  -2.708  -3.419  0.00  0.00    -0.163 NA
ENDROOT
BRANCH   1  13
ATOM     10  C   UNL     1      -0.018   1.503   0.010  0.00  0.00    +0.066 C 
ATOM     11  C   UNL     1       0.002  -0.004   0.002  0.00  0.00    +0.048 A 
ATOM     12  C   UNL     1       0.005  -0.680  -1.193  0.00  0.00    +0.042 A 
ATOM     13  C   UNL     1       0.024  -2.063  -1.090  0.00  0.00    +0.059 A 
ATOM     14  S   UNL     1       0.036  -2.275   0.681  0.00  0.00    +0.013 S 
ATOM     15  N   UNL     1       0.022  -0.661   1.134  0.00  0.00    -0.215 NA
ENDBRANCH   1  13
BRANCH   7  16
ATOM     16  C   UNL     1       0.014  -2.319  -6.611  0.00  0.00    +0.307 C 
BRANCH  16  17
ATOM     17  O   UNL     1      -1.338  -1.932  -6.866  0.00  0.00    -0.484 OA
BRANCH  17  18
ATOM     18  C   UNL     1      -1.528  -0.806  -7.597  0.00  0.00    +0.132 A 
ATOM     19  C   UNL     1      -0.454  -0.075  -8.074  0.00  0.00    +0.064 A 
ATOM     20  C   UNL     1      -0.680   1.074  -8.820  0.00  0.00    +0.086 A 
ATOM     21  N   UNL     1      -1.893   1.496  -9.091  0.00  0.00    -0.360 N 
ATOM     22  C   UNL     1      -2.977   0.838  -8.662  0.00  0.00    +0.053 A 
ATOM     23  C   UNL     1      -2.830  -0.347  -7.900  0.00  0.00    +0.040 A 
ATOM     24  C   UNL     1      -3.967  -1.037  -7.456  0.00  0.00    +0.017 A 
ATOM     25  C   UNL     1      -5.207  -0.569  -7.764  0.00  0.00    +0.046 A 
ATOM     26  C   UNL     1      -5.364   0.597  -8.521  0.00  0.00    +0.122 A 
ATOM     27  C   UNL     1      -4.268   1.303  -8.961  0.00  0.00    +0.072 A 
ATOM     28  H   UNL     1      -2.007   2.304  -9.615  0.00  0.00    +0.165 HD
BRANCH  26  29
ATOM     29  O   UNL     1      -6.612   1.043  -8.815  0.00  0.00    -0.495 OA
ATOM     30  C   UNL     1      -7.710   0.273  -8.320  0.00  0.00    +0.277 C 
ENDBRANCH  26  29
ENDBRANCH  17  18
ENDBRANCH  16  17
ENDBRANCH   7  16
TORSDOF 5
