REMARK  Name = CHEMBL472552
REMARK  7 active torsions:
REMARK  status: ('A' for Active; 'I' for Inactive)
REMARK    1  A    between atoms: C_1  and  O_2
REMARK    2  A    between atoms: O_2  and  C_3
REMARK    3  A    between atoms: C_6  and  O_15
REMARK    4  A    between atoms: C_12  and  O_13
REMARK    5  A    between atoms: O_13  and  C_14
REMARK    6  A    between atoms: O_15  and  C_16
REMARK    7  A    between atoms: C_26  and  C_28
REMARK                            x       y       z     vdW  Elec       q    Type
REMARK                         _______ _______ _______ _____ _____    ______ ____
ROOT
ATOM      1  C   UNL     1       2.911   2.400  -5.130  0.00  0.00    +0.147 A 
ATOM      2  C   UNL     1       2.934   3.789  -5.029  0.00  0.00    +0.051 A 
ATOM      3  C   UNL     1       3.550   4.513  -6.035  0.00  0.00    +0.047 A 
ATOM      4  C   UNL     1       4.120   3.835  -7.106  0.00  0.00    +0.126 A 
ATOM      5  N   UNL     1       4.079   2.514  -7.168  0.00  0.00    -0.236 NA
ATOM      6  C   UNL     1       3.505   1.792  -6.224  0.00  0.00    +0.159 A 
ATOM      7  N   UNL     1       4.743   4.555  -8.126  0.00  0.00    -0.254 N 
ATOM      8  C   UNL     1       5.202   3.915  -9.220  0.00  0.00    +0.311 C 
ATOM      9  O   UNL     1       5.162   2.701  -9.275  0.00  0.00    -0.252 OA
ATOM     10  N   UNL     1       5.703   4.621 -10.252  0.00  0.00    -0.236 N 
ATOM     11  C   UNL     1       6.162   3.981 -11.346  0.00  0.00    +0.251 C 
ATOM     12  O   UNL     1       6.123   2.767 -11.401  0.00  0.00    -0.270 OA
ATOM     13  H   UNL     1       4.846   5.516  -8.048  0.00  0.00    +0.158 HD
ATOM     14  H   UNL     1       5.734   5.589 -10.209  0.00  0.00    +0.159 HD
ENDROOT
BRANCH  11  15
ATOM     15  C   UNL     1       6.712   4.754 -12.479  0.00  0.00    +0.037 A 
ATOM     16  C   UNL     1       6.764   6.148 -12.416  0.00  0.00    +0.013 A 
ATOM     17  C   UNL     1       7.279   6.864 -13.477  0.00  0.00    +0.001 A 
ATOM     18  C   UNL     1       7.744   6.204 -14.601  0.00  0.00    +0.000 A 
ATOM     19  C   UNL     1       7.695   4.823 -14.669  0.00  0.00    +0.001 A 
ATOM     20  C   UNL     1       7.188   4.094 -13.613  0.00  0.00    +0.013 A 
ENDBRANCH  11  15
BRANCH   1  21
ATOM     21  O   UNL     1       2.317   1.650  -4.164  0.00  0.00    -0.454 OA
BRANCH  21  25
ATOM     22  C   UNL     1       0.681  -0.500  -0.944  0.00  0.00    +0.162 A 
ATOM     23  C   UNL     1       1.177   0.206  -2.001  0.00  0.00    +0.063 A 
ATOM     24  C   UNL     1       2.565   0.300  -2.183  0.00  0.00    +0.046 A 
ATOM     25  C   UNL     1       3.115   1.023  -3.265  0.00  0.00    +0.139 A 
ATOM     26  C   UNL     1       4.494   1.071  -3.379  0.00  0.00    +0.066 A 
ATOM     27  C   UNL     1       5.285   0.418  -2.443  0.00  0.00    +0.115 A 
ATOM     28  N   UNL     1       4.764  -0.251  -1.442  0.00  0.00    -0.255 NA
ATOM     29  C   UNL     1       3.440  -0.339  -1.270  0.00  0.00    +0.078 A 
ATOM     30  C   UNL     1       2.898  -1.059  -0.192  0.00  0.00    +0.077 A 
ATOM     31  C   UNL     1       1.544  -1.129  -0.035  0.00  0.00    +0.164 A 
BRANCH  22  33
ATOM     32  C   UNL     1      -1.491   0.072  -1.726  0.00  0.00    +0.277 C 
ATOM     33  O   UNL     1      -0.664  -0.591  -0.767  0.00  0.00    -0.491 OA
ENDBRANCH  22  33
BRANCH  31  34
ATOM     34  O   UNL     1       1.026  -1.822   1.012  0.00  0.00    -0.491 OA
ATOM     35  C   UNL     1       1.955  -2.441   1.904  0.00  0.00    +0.277 C 
ENDBRANCH  31  34
ENDBRANCH  21  25
ENDBRANCH   1  21
TORSDOF 5
