REMARK  Name = CHEMBL430026
REMARK  10 active torsions:
REMARK  status: ('A' for Active; 'I' for Inactive)
REMARK    1  A    between atoms: C_1  and  C_2
REMARK    2  A    between atoms: C_6  and  C_8
REMARK    3  A    between atoms: N_10  and  C_11
REMARK    4  A    between atoms: C_14  and  O_18
REMARK    5  A    between atoms: O_18  and  C_19
REMARK    6  A    between atoms: C_21  and  C_37
REMARK    7  A    between atoms: C_22  and  O_28
REMARK    8  A    between atoms: O_28  and  C_29
REMARK    9  A    between atoms: C_29  and  C_30
REMARK   10  A    between atoms: C_30  and  N_31
REMARK                            x       y       z     vdW  Elec       q    Type
REMARK                         _______ _______ _______ _____ _____    ______ ____
ROOT
ATOM      1  O   UNL     1      -0.338  -5.272   8.368  0.00  0.00    -0.433 OA
ENDROOT
BRANCH   1   2
ATOM      2  C   UNL     1       0.021  -6.572   8.479  0.00  0.00    +0.248 A 
ATOM      3  C   UNL     1       0.299  -7.131   9.745  0.00  0.00    +0.134 A 
ATOM      4  C   UNL     1       0.296  -6.629  11.033  0.00  0.00    +0.023 A 
ATOM      5  C   UNL     1       0.663  -7.679  11.880  0.00  0.00    +0.144 A 
ATOM      6  C   UNL     1       0.879  -8.783  11.111  0.00  0.00    +0.159 A 
ATOM      7  N   UNL     1       0.661  -8.463   9.813  0.00  0.00    -0.229 N 
ATOM      8  N   UNL     1       0.735  -9.195   8.620  0.00  0.00    -0.155 NA
ATOM      9  C   UNL     1       0.465  -8.616   7.482  0.00  0.00    +0.247 A 
ATOM     10  N   UNL     1       0.109  -7.335   7.403  0.00  0.00    -0.198 NA
ATOM     11  C   UNL     1      -0.038  -5.219  11.445  0.00  0.00    +0.050 C 
BRANCH   5  12
ATOM     12  O   UNL     1       0.783  -7.611  13.235  0.00  0.00    -0.492 OA
BRANCH  12  13
ATOM     13  C   UNL     1       1.172  -8.807  13.913  0.00  0.00    +0.211 C 
BRANCH  13  14
ATOM     14  C   UNL     1       1.254  -8.537  15.417  0.00  0.00    -0.037 C 
BRANCH  14  15
ATOM     15  N   UNL     1      -0.084  -8.212  15.930  0.00  0.00    +0.385 N 
ATOM     16  C   UNL     1       0.014  -7.826  17.344  0.00  0.00    -0.050 C 
ATOM     17  C   UNL     1      -1.381  -7.488  17.876  0.00  0.00    +0.141 C 
ATOM     18  O   UNL     1      -2.240  -8.617  17.698  0.00  0.00    -0.383 OA
ATOM     19  C   UNL     1      -2.349  -9.047  16.338  0.00  0.00    +0.141 C 
ATOM     20  C   UNL     1      -0.956  -9.388  15.803  0.00  0.00    -0.050 C 
ATOM     21  H   UNL     1      -0.472  -7.447  15.398  0.00  0.00    -0.081 HD
ENDBRANCH  14  15
ENDBRANCH  13  14
ENDBRANCH  12  13
ENDBRANCH   5  12
ENDBRANCH   1   2
BRANCH   1  25
ATOM     22  C   UNL     1      -0.825  -3.711   4.576  0.00  0.00    +0.037 A 
ATOM     23  C   UNL     1       0.394  -3.583   5.229  0.00  0.00    +0.027 A 
ATOM     24  C   UNL     1       0.556  -4.105   6.498  0.00  0.00    +0.051 A 
ATOM     25  C   UNL     1      -0.498  -4.758   7.120  0.00  0.00    +0.166 A 
ATOM     26  C   UNL     1      -1.718  -4.886   6.467  0.00  0.00    +0.167 A 
ATOM     27  C   UNL     1      -1.882  -4.359   5.200  0.00  0.00    +0.065 A 
ATOM     28  F   UNL     1      -2.744  -5.523   7.072  0.00  0.00    -0.202 F 
BRANCH  22  31
ATOM     29  C   UNL     1      -2.170  -2.645   2.927  0.00  0.00    +0.251 C 
ATOM     30  O   UNL     1      -3.122  -2.705   3.682  0.00  0.00    -0.270 OA
ATOM     31  N   UNL     1      -0.988  -3.181   3.290  0.00  0.00    -0.281 N 
ATOM     32  H   UNL     1      -0.251  -3.200   2.660  0.00  0.00    +0.155 HD
BRANCH  29  38
ATOM     33  C   UNL     1      -0.179  -1.219  -1.418  0.00  0.00    +0.044 C 
ATOM     34  C   UNL     1      -1.356  -1.296  -0.480  0.00  0.00    -0.050 A 
ATOM     35  C   UNL     1      -2.571  -0.746  -0.851  0.00  0.00    +0.006 A 
ATOM     36  C   UNL     1      -3.656  -0.811   0.002  0.00  0.00    +0.039 A 
ATOM     37  C   UNL     1      -3.535  -1.428   1.234  0.00  0.00    +0.135 A 
ATOM     38  C   UNL     1      -2.310  -1.985   1.614  0.00  0.00    +0.072 A 
ATOM     39  C   UNL     1      -1.220  -1.919   0.742  0.00  0.00    +0.019 A 
ATOM     40  F   UNL     1      -4.596  -1.491   2.068  0.00  0.00    -0.205 F 
ENDBRANCH  29  38
ENDBRANCH  22  31
ENDBRANCH   1  25
TORSDOF 8
