REMARK  Name = CHEMBL1170607
REMARK  4 active torsions:
REMARK  status: ('A' for Active; 'I' for Inactive)
REMARK    1  A    between atoms: C_8  and  C_10
REMARK    2  A    between atoms: C_12  and  C_17
REMARK    3  A    between atoms: C_15  and  N_16
REMARK    4  A    between atoms: N_20  and  C_22
REMARK                            x       y       z     vdW  Elec       q    Type
REMARK                         _______ _______ _______ _____ _____    ______ ____
ROOT
ATOM      1  C   UNL     1       3.676  -3.354   0.186  0.00  0.00    +0.075 A 
ATOM      2  C   UNL     1       3.012  -4.579   0.282  0.00  0.00    +0.026 A 
ATOM      3  C   UNL     1       3.734  -5.744   0.022  0.00  0.00    +0.002 A 
ATOM      4  C   UNL     1       5.081  -5.647  -0.321  0.00  0.00    +0.092 A 
ATOM      5  N   UNL     1       5.679  -4.476  -0.403  0.00  0.00    -0.349 N 
ATOM      6  C   UNL     1       5.035  -3.343  -0.172  0.00  0.00    +0.106 A 
ATOM      7  H   UNL     1       6.618  -4.442  -0.644  0.00  0.00    +0.167 HD
ENDROOT
BRANCH   1  15
ATOM      8  C   UNL     1       0.269   1.506   0.843  0.00  0.00    +0.002 A 
ATOM      9  C   UNL     1       1.316   1.939   1.644  0.00  0.00    +0.004 A 
ATOM     10  C   UNL     1       2.425   1.141   1.838  0.00  0.00    +0.048 A 
ATOM     11  C   UNL     1       2.497  -0.103   1.230  0.00  0.00    +0.156 A 
ATOM     12  C   UNL     1       1.439  -0.545   0.419  0.00  0.00    +0.110 A 
ATOM     13  C   UNL     1       0.323   0.274   0.232  0.00  0.00    +0.031 A 
ATOM     14  N   UNL     1       1.784  -1.778  -0.033  0.00  0.00    -0.209 NA
ATOM     15  C   UNL     1       2.960  -2.090   0.450  0.00  0.00    +0.232 A 
ATOM     16  O   UNL     1       3.421  -1.089   1.224  0.00  0.00    -0.435 OA
ENDBRANCH   1  15
BRANCH   3  17
ATOM     17  C   UNL     1       3.075  -7.072   0.111  0.00  0.00    +0.021 A 
ATOM     18  C   UNL     1       1.727  -7.311   0.440  0.00  0.00    +0.143 A 
ATOM     19  N   UNL     1       1.526  -8.602   0.414  0.00  0.00    -0.179 NA
ATOM     20  N   UNL     1       2.727  -9.233   0.071  0.00  0.00    -0.268 N 
ATOM     21  C   UNL     1       3.664  -8.281  -0.117  0.00  0.00    +0.117 A 
BRANCH  20  22
ATOM     22  C   UNL     1       2.931 -10.677  -0.066  0.00  0.00    +0.111 C 
ATOM     23  C   UNL     1       3.941 -10.948  -1.185  0.00  0.00    +0.055 C 
ATOM     24  C   UNL     1       4.207 -12.454  -1.268  0.00  0.00    +0.162 C 
ATOM     25  O   UNL     1       4.683 -12.923  -0.005  0.00  0.00    -0.380 OA
ATOM     26  C   UNL     1       3.760 -12.739   1.071  0.00  0.00    +0.162 C 
ATOM     27  C   UNL     1       3.476 -11.245   1.248  0.00  0.00    +0.055 C 
ENDBRANCH  20  22
ENDBRANCH   3  17
BRANCH   6  28
ATOM     28  N   UNL     1       5.707  -2.136  -0.277  0.00  0.00    -0.344 N 
ATOM     29  H   UNL     1       5.221  -1.301  -0.196  0.00  0.00    +0.144 HD
ATOM     30  H   UNL     1       6.665  -2.127  -0.433  0.00  0.00    +0.144 HD
ENDBRANCH   6  28
TORSDOF 4
