REMARK  Name = CHEMBL1098157
REMARK  8 active torsions:
REMARK  status: ('A' for Active; 'I' for Inactive)
REMARK    1  A    between atoms: C_1  and  N_2
REMARK    2  A    between atoms: C_4  and  C_7
REMARK    3  A    between atoms: C_12  and  O_16
REMARK    4  A    between atoms: O_16  and  C_17
REMARK    5  A    between atoms: C_20  and  N_24
REMARK    6  A    between atoms: C_25  and  C_27
REMARK    7  A    between atoms: N_30  and  C_36
REMARK    8  A    between atoms: C_31  and  C_32
REMARK                            x       y       z     vdW  Elec       q    Type
REMARK                         _______ _______ _______ _____ _____    ______ ____
ROOT
ATOM      1  C   UNL     1       0.067  -6.666  -6.662  0.00  0.00    +0.164 A 
ATOM      2  C   UNL     1      -0.168  -7.971  -6.258  0.00  0.00    +0.051 A 
ATOM      3  C   UNL     1      -0.166  -8.994  -7.186  0.00  0.00    +0.027 A 
ATOM      4  C   UNL     1       0.071  -8.716  -8.525  0.00  0.00    +0.037 A 
ATOM      5  C   UNL     1       0.306  -7.409  -8.932  0.00  0.00    +0.065 A 
ATOM      6  C   UNL     1       0.298  -6.385  -8.003  0.00  0.00    +0.167 A 
ATOM      7  F   UNL     1       0.521  -5.113  -8.399  0.00  0.00    -0.202 F 
ENDROOT
BRANCH   4   8
ATOM      8  N   UNL     1       0.074  -9.753  -9.466  0.00  0.00    -0.281 N 
ATOM      9  C   UNL     1      -0.372  -9.529 -10.718  0.00  0.00    +0.252 C 
ATOM     10  O   UNL     1      -0.861  -8.453 -11.006  0.00  0.00    -0.270 OA
ATOM     11  H   UNL     1       0.396 -10.633  -9.217  0.00  0.00    +0.155 HD
BRANCH   9  12
ATOM     12  C   UNL     1      -0.266 -10.587 -11.739  0.00  0.00    +0.086 A 
ATOM     13  C   UNL     1       0.269 -11.881 -11.553  0.00  0.00    +0.148 A 
ATOM     14  N   UNL     1       0.185 -12.520 -12.688  0.00  0.00    -0.179 NA
ATOM     15  N   UNL     1      -0.399 -11.677 -13.640  0.00  0.00    -0.262 N 
ATOM     16  C   UNL     1      -0.678 -10.501 -13.054  0.00  0.00    +0.153 A 
ATOM     17  C   UNL     1      -0.667 -12.021 -15.038  0.00  0.00    +0.173 C 
BRANCH  16  18
ATOM     18  C   UNL     1      -1.319  -9.307 -13.712  0.00  0.00    +0.435 C 
ATOM     19  F   UNL     1      -2.178  -9.739 -14.727  0.00  0.00    -0.164 F 
ATOM     20  F   UNL     1      -2.047  -8.585 -12.760  0.00  0.00    -0.164 F 
ATOM     21  F   UNL     1      -0.326  -8.487 -14.259  0.00  0.00    -0.164 F 
ENDBRANCH  16  18
ENDBRANCH   9  12
ENDBRANCH   4   8
BRANCH   1  22
ATOM     22  O   UNL     1       0.065  -5.660  -5.748  0.00  0.00    -0.452 OA
BRANCH  22  28
ATOM     23  C   UNL     1      -1.189  -2.140  -2.638  0.00  0.00    +0.042 A 
ATOM     24  C   UNL     1      -2.324  -2.291  -3.369  0.00  0.00    +0.046 A 
ATOM     25  C   UNL     1      -2.372  -3.243  -4.405  0.00  0.00    +0.082 A 
ATOM     26  C   UNL     1      -1.186  -3.986  -4.597  0.00  0.00    +0.080 A 
ATOM     27  S   UNL     1      -0.084  -3.337  -3.367  0.00  0.00    -0.081 S 
ATOM     28  C   UNL     1      -1.084  -4.956  -5.577  0.00  0.00    +0.146 A 
ATOM     29  C   UNL     1      -2.196  -5.189  -6.384  0.00  0.00    +0.067 A 
ATOM     30  C   UNL     1      -3.339  -4.439  -6.162  0.00  0.00    +0.115 A 
ATOM     31  N   UNL     1      -3.408  -3.526  -5.227  0.00  0.00    -0.254 NA
BRANCH  23  35
ATOM     32  C   UNL     1       1.014   0.347   1.099  0.00  0.00    +0.150 C 
ATOM     33  N   UNL     1       0.035  -0.122   0.116  0.00  0.00    -0.339 N 
ATOM     34  C   UNL     1       0.233  -1.095  -0.822  0.00  0.00    +0.115 A 
ATOM     35  C   UNL     1      -0.931  -1.209  -1.519  0.00  0.00    +0.095 A 
ATOM     36  N   UNL     1      -1.806  -0.319  -1.006  0.00  0.00    -0.235 NA
ATOM     37  C   UNL     1      -1.237   0.327  -0.028  0.00  0.00    +0.199 A 
ENDBRANCH  23  35
ENDBRANCH  22  28
ENDBRANCH   1  22
TORSDOF 6
