REMARK  Name = CHEMBL502331
REMARK  13 active torsions:
REMARK  status: ('A' for Active; 'I' for Inactive)
REMARK    1  A    between atoms: C_1  and  N_2
REMARK    2  A    between atoms: C_3  and  C_38
REMARK    3  A    between atoms: C_6  and  C_9
REMARK    4  A    between atoms: C_12  and  O_16
REMARK    5  A    between atoms: O_16  and  C_17
REMARK    6  A    between atoms: C_24  and  O_36
REMARK    7  A    between atoms: C_25  and  O_27
REMARK    8  A    between atoms: O_27  and  C_28
REMARK    9  A    between atoms: C_28  and  C_29
REMARK   10  A    between atoms: C_29  and  C_30
REMARK   11  A    between atoms: C_30  and  N_31
REMARK   12  A    between atoms: O_36  and  C_37
REMARK   13  A    between atoms: C_38  and  C_39
REMARK                            x       y       z     vdW  Elec       q    Type
REMARK                         _______ _______ _______ _____ _____    ______ ____
ROOT
ATOM      1  C   UNL     1       2.441  -2.833  -0.044  0.00  0.00    -0.008 A 
ATOM      2  C   UNL     1       2.438  -4.161   0.383  0.00  0.00    +0.012 A 
ATOM      3  C   UNL     1       3.609  -4.889   0.378  0.00  0.00    +0.050 A 
ATOM      4  C   UNL     1       4.792  -4.302  -0.050  0.00  0.00    +0.164 A 
ATOM      5  C   UNL     1       4.800  -2.978  -0.476  0.00  0.00    +0.166 A 
ATOM      6  C   UNL     1       3.629  -2.246  -0.479  0.00  0.00    +0.050 A 
ATOM      7  F   UNL     1       5.953  -2.410  -0.892  0.00  0.00    -0.202 F 
ENDROOT
BRANCH   1  13
ATOM      8  C   UNL     1      -1.327  -0.677   2.361  0.00  0.00    +0.153 C 
ATOM      9  N   UNL     1      -0.619  -1.019   1.124  0.00  0.00    -0.299 N 
ATOM     10  C   UNL     1      -1.110  -0.616  -0.064  0.00  0.00    +0.116 A 
ATOM     11  N   UNL     1      -0.510  -0.898  -1.190  0.00  0.00    -0.241 NA
ATOM     12  C   UNL     1       0.622  -1.602  -1.223  0.00  0.00    +0.126 A 
ATOM     13  C   UNL     1       1.184  -2.049  -0.040  0.00  0.00    +0.065 A 
ATOM     14  C   UNL     1       0.526  -1.732   1.179  0.00  0.00    +0.262 A 
ATOM     15  O   UNL     1       0.983  -2.098   2.248  0.00  0.00    -0.267 OA
BRANCH  10  16
ATOM     16  C   UNL     1      -2.387   0.184  -0.096  0.00  0.00    +0.109 C 
BRANCH  16  17
ATOM     17  C   UNL     1      -2.735   0.518  -1.524  0.00  0.00    -0.040 A 
ATOM     18  C   UNL     1      -2.258   1.681  -2.098  0.00  0.00    +0.004 A 
ATOM     19  C   UNL     1      -2.578   1.988  -3.407  0.00  0.00    +0.000 A 
ATOM     20  C   UNL     1      -3.374   1.130  -4.143  0.00  0.00    +0.000 A 
ATOM     21  C   UNL     1      -3.850  -0.034  -3.569  0.00  0.00    +0.000 A 
ATOM     22  C   UNL     1      -3.527  -0.343  -2.261  0.00  0.00    +0.004 A 
ENDBRANCH  16  17
ENDBRANCH  10  16
ENDBRANCH   1  13
BRANCH   4  23
ATOM     23  O   UNL     1       5.944  -5.022  -0.052  0.00  0.00    -0.452 OA
BRANCH  23  24
ATOM     24  C   UNL     1       6.802  -4.855   0.984  0.00  0.00    +0.139 A 
ATOM     25  C   UNL     1       6.464  -4.065   2.070  0.00  0.00    +0.066 A 
ATOM     26  C   UNL     1       7.363  -3.912   3.117  0.00  0.00    +0.115 A 
ATOM     27  N   UNL     1       8.537  -4.499   3.112  0.00  0.00    -0.255 NA
ATOM     28  C   UNL     1       8.929  -5.276   2.096  0.00  0.00    +0.078 A 
ATOM     29  C   UNL     1       8.066  -5.485   0.993  0.00  0.00    +0.046 A 
ATOM     30  C   UNL     1       8.478  -6.305  -0.070  0.00  0.00    +0.063 A 
ATOM     31  C   UNL     1       9.707  -6.898  -0.028  0.00  0.00    +0.162 A 
ATOM     32  C   UNL     1      10.561  -6.697   1.066  0.00  0.00    +0.164 A 
ATOM     33  C   UNL     1      10.190  -5.896   2.107  0.00  0.00    +0.077 A 
BRANCH  31  34
ATOM     34  O   UNL     1      10.106  -7.692  -1.057  0.00  0.00    -0.491 OA
ATOM     35  C   UNL     1       9.190  -7.857  -2.142  0.00  0.00    +0.277 C 
ENDBRANCH  31  34
BRANCH  32  36
ATOM     36  O   UNL     1      11.779  -7.298   1.084  0.00  0.00    -0.488 OA
BRANCH  36  37
ATOM     37  C   UNL     1      12.605  -7.056   2.225  0.00  0.00    +0.231 C 
BRANCH  37  38
ATOM     38  C   UNL     1      13.927  -7.811   2.067  0.00  0.00    +0.064 C 
BRANCH  38  39
ATOM     39  C   UNL     1      14.811  -7.552   3.288  0.00  0.00    +0.148 C 
BRANCH  39  40
ATOM     40  N   UNL     1      16.076  -8.275   3.138  0.00  0.00    -0.252 N 
ATOM     41  C   UNL     1      17.314  -7.755   3.201  0.00  0.00    +0.219 A 
ATOM     42  N   UNL     1      18.172  -8.725   3.017  0.00  0.00    -0.223 NA
ATOM     43  C   UNL     1      17.523  -9.874   2.833  0.00  0.00    +0.244 A 
ATOM     44  N   UNL     1      16.237  -9.650   2.904  0.00  0.00    -0.158 NA
ENDBRANCH  39  40
ENDBRANCH  38  39
ENDBRANCH  37  38
ENDBRANCH  36  37
ENDBRANCH  32  36
ENDBRANCH  23  24
ENDBRANCH   4  23
TORSDOF 11
