REMARK  Name = CHEMBL498769
REMARK  4 active torsions:
REMARK  status: ('A' for Active; 'I' for Inactive)
REMARK    1  A    between atoms: C_4  and  C_7
REMARK    2  A    between atoms: C_13  and  C_16
REMARK    3  A    between atoms: C_16  and  C_17
REMARK    4  A    between atoms: C_20  and  O_23
REMARK                            x       y       z     vdW  Elec       q    Type
REMARK                         _______ _______ _______ _____ _____    ______ ____
ROOT
ATOM      1  C   UNL     1       3.699  -0.689  -0.038  0.00  0.00    +0.110 A 
ATOM      2  C   UNL     1       4.913   0.035  -0.041  0.00  0.00    +0.144 A 
ATOM      3  N   UNL     1       6.064  -0.587  -0.056  0.00  0.00    -0.216 NA
ATOM      4  C   UNL     1       6.121  -1.924  -0.069  0.00  0.00    +0.272 A 
ATOM      5  N   UNL     1       7.118  -2.793  -0.086  0.00  0.00    -0.107 NA
ATOM      6  N   UNL     1       6.646  -3.990  -0.093  0.00  0.00    -0.130 NA
ATOM      7  C   UNL     1       5.337  -3.962  -0.083  0.00  0.00    +0.161 A 
ATOM      8  N   UNL     1       4.958  -2.660  -0.067  0.00  0.00    -0.180 N 
ATOM      9  N   UNL     1       3.722  -2.007  -0.045  0.00  0.00    -0.161 NA
ENDROOT
BRANCH   1  13
ATOM     10  C   UNL     1      -0.017   1.379   0.010  0.00  0.00    +0.000 A 
ATOM     11  C   UNL     1       1.169   2.092   0.002  0.00  0.00    +0.001 A 
ATOM     12  C   UNL     1       2.377   1.426  -0.013  0.00  0.00    +0.010 A 
ATOM     13  C   UNL     1       2.402   0.033  -0.021  0.00  0.00    +0.004 A 
ATOM     14  C   UNL     1       1.205  -0.680  -0.013  0.00  0.00    +0.010 A 
ATOM     15  C   UNL     1       0.002  -0.004   0.002  0.00  0.00    +0.001 A 
ENDBRANCH   1  13
BRANCH   7  16
ATOM     16  C   UNL     1       4.420  -5.158  -0.087  0.00  0.00    +0.113 C 
BRANCH  16  17
ATOM     17  C   UNL     1       4.126  -5.570   1.333  0.00  0.00    -0.040 A 
ATOM     18  C   UNL     1       4.945  -6.483   1.971  0.00  0.00    +0.007 A 
ATOM     19  C   UNL     1       4.676  -6.863   3.272  0.00  0.00    +0.045 A 
ATOM     20  C   UNL     1       3.584  -6.326   3.938  0.00  0.00    +0.117 A 
ATOM     21  C   UNL     1       2.764  -5.410   3.296  0.00  0.00    +0.045 A 
ATOM     22  C   UNL     1       3.040  -5.030   1.997  0.00  0.00    +0.007 A 
BRANCH  20  23
ATOM     23  O   UNL     1       3.318  -6.698   5.218  0.00  0.00    -0.507 OA
ATOM     24  H   UNL     1       3.747  -6.146   5.885  0.00  0.00    +0.292 HD
ENDBRANCH  20  23
ENDBRANCH  16  17
ENDBRANCH   7  16
TORSDOF 4
