REMARK  Name = CHEMBL462023
REMARK  9 active torsions:
REMARK  status: ('A' for Active; 'I' for Inactive)
REMARK    1  A    between atoms: C_1  and  C_2
REMARK    2  A    between atoms: C_2  and  C_3
REMARK    3  A    between atoms: C_2  and  N_4
REMARK    4  A    between atoms: C_6  and  C_9
REMARK    5  A    between atoms: C_14  and  O_18
REMARK    6  A    between atoms: O_18  and  C_19
REMARK    7  A    between atoms: C_22  and  N_26
REMARK    8  A    between atoms: C_27  and  C_29
REMARK    9  A    between atoms: N_33  and  C_35
REMARK                            x       y       z     vdW  Elec       q    Type
REMARK                         _______ _______ _______ _____ _____    ______ ____
ROOT
ATOM      1  C   UNL     1      -6.590  -6.022  -5.594  0.00  0.00    +0.164 A 
ATOM      2  C   UNL     1      -7.917  -6.245  -5.258  0.00  0.00    +0.051 A 
ATOM      3  C   UNL     1      -8.721  -7.004  -6.085  0.00  0.00    +0.027 A 
ATOM      4  C   UNL     1      -8.203  -7.545  -7.254  0.00  0.00    +0.036 A 
ATOM      5  C   UNL     1      -6.875  -7.322  -7.592  0.00  0.00    +0.065 A 
ATOM      6  C   UNL     1      -6.071  -6.557  -6.767  0.00  0.00    +0.167 A 
ATOM      7  F   UNL     1      -4.780  -6.336  -7.097  0.00  0.00    -0.202 F 
ENDROOT
BRANCH   4   8
ATOM      8  N   UNL     1      -9.019  -8.316  -8.092  0.00  0.00    -0.285 N 
ATOM      9  C   UNL     1     -10.323  -8.005  -8.234  0.00  0.00    +0.222 C 
ATOM     10  O   UNL     1     -10.806  -7.104  -7.582  0.00  0.00    -0.275 OA
ATOM     11  H   UNL     1      -8.646  -9.073  -8.569  0.00  0.00    +0.155 HD
BRANCH   9  12
ATOM     12  C   UNL     1     -11.180  -8.777  -9.203  0.00  0.00    +0.102 C 
ATOM     13  C   UNL     1     -10.749  -8.503 -10.663  0.00  0.00    +0.110 C 
ATOM     14  C   UNL     1     -12.050  -8.480 -11.435  0.00  0.00    +0.221 C 
ATOM     15  O   UNL     1     -12.143  -8.573 -12.641  0.00  0.00    -0.275 OA
ATOM     16  N   UNL     1     -13.087  -8.343 -10.591  0.00  0.00    -0.271 N 
ATOM     17  C   UNL     1     -12.632  -8.249  -9.199  0.00  0.00    +0.127 C 
BRANCH  16  18
ATOM     18  C   UNL     1     -14.427  -8.295 -10.989  0.00  0.00    +0.036 A 
ATOM     19  C   UNL     1     -14.768  -8.523 -12.316  0.00  0.00    +0.023 A 
ATOM     20  C   UNL     1     -16.093  -8.475 -12.705  0.00  0.00    +0.002 A 
ATOM     21  C   UNL     1     -17.079  -8.201 -11.775  0.00  0.00    +0.000 A 
ATOM     22  C   UNL     1     -16.742  -7.974 -10.453  0.00  0.00    +0.002 A 
ATOM     23  C   UNL     1     -15.421  -8.026 -10.056  0.00  0.00    +0.023 A 
ENDBRANCH  16  18
ENDBRANCH   9  12
ENDBRANCH   4   8
BRANCH   1  24
ATOM     24  O   UNL     1      -5.798  -5.274  -4.780  0.00  0.00    -0.452 OA
BRANCH  24  30
ATOM     25  C   UNL     1      -3.585  -1.647  -2.420  0.00  0.00    +0.042 A 
ATOM     26  C   UNL     1      -4.134  -1.002  -3.481  0.00  0.00    +0.046 A 
ATOM     27  C   UNL     1      -4.880  -1.723  -4.432  0.00  0.00    +0.082 A 
ATOM     28  C   UNL     1      -4.996  -3.108  -4.186  0.00  0.00    +0.080 A 
ATOM     29  S   UNL     1      -4.079  -3.341  -2.685  0.00  0.00    -0.081 S 
ATOM     30  C   UNL     1      -5.699  -3.944  -5.033  0.00  0.00    +0.146 A 
ATOM     31  C   UNL     1      -6.301  -3.380  -6.156  0.00  0.00    +0.067 A 
ATOM     32  C   UNL     1      -6.164  -2.017  -6.361  0.00  0.00    +0.115 A 
ATOM     33  N   UNL     1      -5.493  -1.248  -5.542  0.00  0.00    -0.254 NA
BRANCH  25  36
ATOM     34  N   UNL     1      -1.571  -0.875   0.496  0.00  0.00    -0.334 N 
ATOM     35  C   UNL     1      -2.240  -1.780  -0.278  0.00  0.00    +0.116 A 
ATOM     36  C   UNL     1      -2.773  -1.085  -1.319  0.00  0.00    +0.095 A 
ATOM     37  N   UNL     1      -2.426   0.211  -1.166  0.00  0.00    -0.235 NA
ATOM     38  C   UNL     1      -1.714   0.338  -0.082  0.00  0.00    +0.200 A 
BRANCH  34  40
ATOM     39  C   UNL     1       0.628  -0.762   1.560  0.00  0.00    +0.030 C 
ATOM     40  C   UNL     1      -0.838  -1.165   1.731  0.00  0.00    +0.082 C 
ATOM     41  C   UNL     1      -1.452  -0.374   2.887  0.00  0.00    +0.030 C 
ENDBRANCH  34  40
ENDBRANCH  25  36
ENDBRANCH  24  30
ENDBRANCH   1  24
TORSDOF 7
