REMARK  Name = CHEMBL468787
REMARK  3 active torsions:
REMARK  status: ('A' for Active; 'I' for Inactive)
REMARK    1  A    between atoms: C_1  and  N_2
REMARK    2  A    between atoms: C_13  and  C_28
REMARK    3  A    between atoms: C_15  and  C_18
REMARK                            x       y       z     vdW  Elec       q    Type
REMARK                         _______ _______ _______ _____ _____    ______ ____
ROOT
ATOM      1  C   UNL     1       0.296   1.447   0.163  0.00  0.00    -0.096 C 
ATOM      2  N   UNL     1       0.155  -0.013   0.076  0.00  0.00    +0.380 N 
ATOM      3  C   UNL     1      -1.259  -0.376   0.234  0.00  0.00    -0.060 C 
ATOM      4  C   UNL     1      -1.424  -1.886   0.030  0.00  0.00    +0.088 C 
ATOM      5  N   UNL     1      -0.511  -2.583   0.950  0.00  0.00    -0.318 N 
ATOM      6  C   UNL     1       0.899  -2.167   0.975  0.00  0.00    +0.088 C 
ATOM      7  C   UNL     1       0.954  -0.643   1.134  0.00  0.00    -0.060 C 
ATOM      8  C   UNL     1      -0.968  -3.603   1.770  0.00  0.00    +0.140 A 
ATOM      9  C   UNL     1      -2.256  -4.132   1.575  0.00  0.00    +0.155 A 
ATOM     10  N   UNL     1      -2.704  -5.097   2.342  0.00  0.00    -0.250 NA
ATOM     11  C   UNL     1      -1.931  -5.585   3.320  0.00  0.00    +0.090 A 
ATOM     12  C   UNL     1      -2.390  -6.620   4.154  0.00  0.00    +0.042 A 
ATOM     13  C   UNL     1      -1.591  -7.106   5.144  0.00  0.00    +0.058 A 
ATOM     14  C   UNL     1      -0.315  -6.596   5.353  0.00  0.00    +0.023 A 
ATOM     15  C   UNL     1       0.177  -5.577   4.555  0.00  0.00    +0.010 A 
ATOM     16  C   UNL     1      -0.634  -5.055   3.519  0.00  0.00    +0.099 A 
ATOM     17  N   UNL     1      -0.189  -4.075   2.726  0.00  0.00    -0.228 NA
ATOM     18  H   UNL     1       0.482  -0.328  -0.825  0.00  0.00    -0.082 HD
ENDROOT
BRANCH  15  19
ATOM     19  C   UNL     1       1.538  -5.039   4.784  0.00  0.00    -0.015 A 
ATOM     20  C   UNL     1       2.429  -4.907   3.718  0.00  0.00    +0.010 A 
ATOM     21  C   UNL     1       3.693  -4.407   3.930  0.00  0.00    +0.024 A 
ATOM     22  C   UNL     1       4.095  -4.028   5.211  0.00  0.00    +0.037 A 
ATOM     23  C   UNL     1       3.202  -4.162   6.269  0.00  0.00    -0.017 A 
ATOM     24  C   UNL     1       1.935  -4.655   6.066  0.00  0.00    +0.014 A 
ATOM     25  C   UNL     1       3.926  -3.672   7.502  0.00  0.00    +0.133 C 
ATOM     26  C   UNL     1       5.292  -3.267   6.989  0.00  0.00    +0.222 C 
ATOM     27  O   UNL     1       6.204  -2.814   7.648  0.00  0.00    -0.275 OA
ATOM     28  N   UNL     1       5.304  -3.504   5.667  0.00  0.00    -0.285 N 
ATOM     29  H   UNL     1       6.068  -3.330   5.094  0.00  0.00    +0.155 HD
ENDBRANCH  15  19
BRANCH  13  30
ATOM     30  C   UNL     1      -2.099  -8.215   6.029  0.00  0.00    +0.418 C 
ATOM     31  F   UNL     1      -3.396  -8.565   5.639  0.00  0.00    -0.166 F 
ATOM     32  F   UNL     1      -1.260  -9.328   5.911  0.00  0.00    -0.166 F 
ATOM     33  F   UNL     1      -2.114  -7.780   7.359  0.00  0.00    -0.166 F 
ENDBRANCH  13  30
TORSDOF 2
