REMARK  Name = CHEMBL1095034
REMARK  8 active torsions:
REMARK  status: ('A' for Active; 'I' for Inactive)
REMARK    1  A    between atoms: C_1  and  N_2
REMARK    2  A    between atoms: C_6  and  C_7
REMARK    3  A    between atoms: C_12  and  O_16
REMARK    4  A    between atoms: O_16  and  C_17
REMARK    5  A    between atoms: C_20  and  N_24
REMARK    6  A    between atoms: C_25  and  C_27
REMARK    7  A    between atoms: N_30  and  C_36
REMARK    8  A    between atoms: C_31  and  C_32
REMARK                            x       y       z     vdW  Elec       q    Type
REMARK                         _______ _______ _______ _____ _____    ______ ____
ROOT
ATOM      1  C   UNL     1       1.444   3.171   7.350  0.00  0.00    +0.164 A 
ATOM      2  C   UNL     1       0.866   2.525   8.432  0.00  0.00    +0.051 A 
ATOM      3  C   UNL     1       0.960   3.073   9.696  0.00  0.00    +0.027 A 
ATOM      4  C   UNL     1       1.634   4.272   9.885  0.00  0.00    +0.037 A 
ATOM      5  C   UNL     1       2.213   4.921   8.803  0.00  0.00    +0.065 A 
ATOM      6  C   UNL     1       2.124   4.368   7.538  0.00  0.00    +0.167 A 
ATOM      7  F   UNL     1       2.693   4.995   6.485  0.00  0.00    -0.202 F 
ENDROOT
BRANCH   4   8
ATOM      8  N   UNL     1       1.728   4.828  11.167  0.00  0.00    -0.281 N 
ATOM      9  C   UNL     1       1.697   6.166  11.325  0.00  0.00    +0.252 C 
ATOM     10  O   UNL     1       1.659   6.893  10.351  0.00  0.00    -0.270 OA
ATOM     11  H   UNL     1       1.816   4.250  11.941  0.00  0.00    +0.155 HD
BRANCH   9  12
ATOM     12  C   UNL     1       1.709   6.748  12.679  0.00  0.00    +0.087 A 
ATOM     13  C   UNL     1       1.758   6.035  13.899  0.00  0.00    +0.148 A 
ATOM     14  N   UNL     1       1.754   6.902  14.874  0.00  0.00    -0.174 NA
ATOM     15  N   UNL     1       1.703   8.192  14.335  0.00  0.00    -0.227 N 
ATOM     16  C   UNL     1       1.681   8.092  12.994  0.00  0.00    +0.159 A 
BRANCH  15  17
ATOM     17  C   UNL     1       1.683   9.386  15.069  0.00  0.00    +0.066 A 
ATOM     18  C   UNL     1       2.323  10.516  14.576  0.00  0.00    +0.028 A 
ATOM     19  C   UNL     1       2.301  11.691  15.301  0.00  0.00    +0.002 A 
ATOM     20  C   UNL     1       1.643  11.744  16.516  0.00  0.00    +0.000 A 
ATOM     21  C   UNL     1       1.006  10.620  17.010  0.00  0.00    +0.002 A 
ATOM     22  C   UNL     1       1.019   9.443  16.287  0.00  0.00    +0.028 A 
ENDBRANCH  15  17
BRANCH  16  23
ATOM     23  C   UNL     1       1.631   9.237  12.015  0.00  0.00    +0.435 C 
ATOM     24  F   UNL     1       2.934   9.625  11.684  0.00  0.00    -0.164 F 
ATOM     25  F   UNL     1       0.957   8.832  10.857  0.00  0.00    -0.164 F 
ATOM     26  F   UNL     1       0.956  10.317  12.594  0.00  0.00    -0.164 F 
ENDBRANCH  16  23
ENDBRANCH   9  12
ENDBRANCH   4   8
BRANCH   1  27
ATOM     27  O   UNL     1       1.351   2.631   6.106  0.00  0.00    -0.452 OA
BRANCH  27  33
ATOM     28  C   UNL     1       1.945  -0.046   2.091  0.00  0.00    +0.055 A 
ATOM     29  C   UNL     1       3.099  -0.288   2.768  0.00  0.00    +0.047 A 
ATOM     30  C   UNL     1       3.321   0.319   4.017  0.00  0.00    +0.082 A 
ATOM     31  C   UNL     1       2.282   1.161   4.473  0.00  0.00    +0.080 A 
ATOM     32  S   UNL     1       1.077   1.076   3.174  0.00  0.00    -0.080 S 
ATOM     33  C   UNL     1       2.360   1.826   5.684  0.00  0.00    +0.146 A 
ATOM     34  C   UNL     1       3.505   1.644   6.456  0.00  0.00    +0.067 A 
ATOM     35  C   UNL     1       4.500   0.811   5.972  0.00  0.00    +0.115 A 
ATOM     36  N   UNL     1       4.401   0.194   4.822  0.00  0.00    -0.254 NA
BRANCH  28  42
ATOM     37  C   UNL     1      -0.957  -0.756   1.262  0.00  0.00    +0.150 C 
ATOM     38  N   UNL     1       0.238  -0.885   0.425  0.00  0.00    -0.335 N 
ATOM     39  C   UNL     1       0.282  -1.334  -0.868  0.00  0.00    +0.104 A 
ATOM     40  C   UNL     1       1.574  -1.292  -1.257  0.00  0.00    +0.102 A 
ATOM     41  N   UNL     1       2.308  -0.832  -0.239  0.00  0.00    -0.345 N 
ATOM     42  C   UNL     1       1.519  -0.575   0.783  0.00  0.00    +0.125 A 
ATOM     43  H   UNL     1       3.269  -0.703  -0.252  0.00  0.00    +0.167 HD
ENDBRANCH  28  42
ENDBRANCH  27  33
ENDBRANCH   1  27
TORSDOF 7
