REMARK  Name = CHEMBL550160
REMARK  4 active torsions:
REMARK  status: ('A' for Active; 'I' for Inactive)
REMARK    1  A    between atoms: C_3  and  C_10
REMARK    2  A    between atoms: C_10  and  N_11
REMARK    3  A    between atoms: C_17  and  C_20
REMARK    4  A    between atoms: N_23  and  C_25
REMARK                            x       y       z     vdW  Elec       q    Type
REMARK                         _______ _______ _______ _____ _____    ______ ____
ROOT
ATOM      1  N   UNL     1       4.086   2.555  -1.401  0.00  0.00    -0.341 N 
ATOM      2  C   UNL     1       5.028   1.786  -2.025  0.00  0.00    +0.089 A 
ATOM      3  C   UNL     1       5.214   2.220  -3.283  0.00  0.00    +0.047 A 
ATOM      4  C   UNL     1       4.317   3.360  -3.483  0.00  0.00    +0.089 A 
ATOM      5  C   UNL     1       3.626   3.523  -2.266  0.00  0.00    +0.068 A 
ATOM      6  C   UNL     1       2.687   4.540  -2.153  0.00  0.00    +0.038 A 
ATOM      7  C   UNL     1       2.466   5.359  -3.260  0.00  0.00    +0.005 A 
ATOM      8  C   UNL     1       3.188   5.134  -4.434  0.00  0.00    +0.120 A 
ATOM      9  N   UNL     1       4.076   4.169  -4.511  0.00  0.00    -0.253 NA
ENDROOT
BRANCH   7  10
ATOM     10  C   UNL     1       1.472   6.460  -3.191  0.00  0.00    +0.021 A 
ATOM     11  C   UNL     1       0.684   6.801  -2.074  0.00  0.00    +0.143 A 
ATOM     12  N   UNL     1      -0.064   7.821  -2.401  0.00  0.00    -0.179 NA
ATOM     13  N   UNL     1       0.214   8.169  -3.729  0.00  0.00    -0.268 N 
ATOM     14  C   UNL     1       1.161   7.330  -4.195  0.00  0.00    +0.117 A 
BRANCH  13  15
ATOM     15  C   UNL     1      -0.411   9.261  -4.480  0.00  0.00    +0.104 C 
ATOM     16  C   UNL     1      -0.557   8.854  -5.949  0.00  0.00    +0.008 C 
ATOM     17  C   UNL     1      -1.137  10.027  -6.742  0.00  0.00    -0.081 C 
ATOM     18  N   UNL     1      -0.239  11.183  -6.640  0.00  0.00    +0.379 N 
ATOM     19  C   UNL     1      -0.150  11.623  -5.243  0.00  0.00    -0.081 C 
ATOM     20  C   UNL     1       0.468  10.511  -4.392  0.00  0.00    +0.008 C 
ATOM     21  H   UNL     1       0.679  10.924  -6.969  0.00  0.00    -0.086 HD
ATOM     22  H   UNL     1      -0.596  11.937  -7.207  0.00  0.00    -0.086 HD
ENDBRANCH  13  15
ENDBRANCH   7  10
BRANCH   1  23
ATOM     23  C   UNL     1       3.628   2.372  -0.021  0.00  0.00    +0.159 C 
BRANCH  23  26
ATOM     24  C   UNL     1      -0.016   1.349   0.009  0.00  0.00    +0.003 A 
ATOM     25  C   UNL     1       1.163   2.104   0.002  0.00  0.00    +0.008 A 
ATOM     26  C   UNL     1       2.384   1.522  -0.013  0.00  0.00    +0.003 A 
ATOM     27  C   UNL     1       2.487   0.107  -0.022  0.00  0.00    +0.139 A 
ATOM     28  C   UNL     1       1.244  -0.689  -0.013  0.00  0.00    +0.135 A 
ATOM     29  C   UNL     1       0.002  -0.004   0.002  0.00  0.00    +0.033 A 
ATOM     30  N   UNL     1       1.574  -1.960  -0.024  0.00  0.00    -0.049 NA
ATOM     31  O   UNL     1       2.988  -2.044  -0.039  0.00  0.00    -0.242 OA
ATOM     32  N   UNL     1       3.503  -0.724  -0.037  0.00  0.00    -0.049 NA
ENDBRANCH  23  26
ENDBRANCH   1  23
TORSDOF 4
