REMARK  Name = CHEMBL598911
REMARK  6 active torsions:
REMARK  status: ('A' for Active; 'I' for Inactive)
REMARK    1  A    between atoms: C_1  and  C_2
REMARK    2  A    between atoms: C_2  and  C_3
REMARK    3  A    between atoms: C_2  and  O_12
REMARK    4  A    between atoms: O_12  and  C_13
REMARK    5  A    between atoms: C_20  and  C_23
REMARK    6  A    between atoms: C_24  and  C_25
REMARK                            x       y       z     vdW  Elec       q    Type
REMARK                         _______ _______ _______ _____ _____    ______ ____
ROOT
ATOM      1  C   UNL     1      -1.965  -0.607  -1.189  0.00  0.00    +0.122 A 
ATOM      2  C   UNL     1      -1.256  -0.345  -2.365  0.00  0.00    +0.048 A 
ATOM      3  C   UNL     1      -1.855  -0.445  -3.582  0.00  0.00    +0.032 A 
ATOM      4  C   UNL     1      -3.208  -0.816  -3.669  0.00  0.00    +0.071 A 
ATOM      5  C   UNL     1      -3.928  -1.081  -2.476  0.00  0.00    +0.004 A 
ATOM      6  C   UNL     1      -3.280  -0.975  -1.234  0.00  0.00    +0.055 A 
ATOM      7  C   UNL     1      -5.280  -1.452  -2.560  0.00  0.00    +0.019 A 
ATOM      8  C   UNL     1      -5.855  -1.542  -3.826  0.00  0.00    -0.006 A 
ATOM      9  C   UNL     1      -5.072  -1.262  -4.962  0.00  0.00    +0.119 A 
ATOM     10  N   UNL     1      -3.814  -0.919  -4.858  0.00  0.00    -0.254 NA
ENDROOT
BRANCH   8  11
ATOM     11  C   UNL     1      -7.267  -1.927  -3.975  0.00  0.00    +0.014 C 
ATOM     12  C   UNL     1      -7.817  -2.012  -5.203  0.00  0.00    +0.067 C 
BRANCH  12  13
ATOM     13  C   UNL     1      -9.222  -2.395  -5.351  0.00  0.00    +0.234 C 
ATOM     14  O   UNL     1      -9.894  -2.636  -4.366  0.00  0.00    -0.271 OA
ATOM     15  N   UNL     1      -9.772  -2.480  -6.579  0.00  0.00    -0.326 N 
ATOM     16  H   UNL     1      -9.237  -2.288  -7.364  0.00  0.00    +0.145 HD
ATOM     17  H   UNL     1     -10.703  -2.734  -6.677  0.00  0.00    +0.145 HD
ENDBRANCH  12  13
ENDBRANCH   8  11
BRANCH   1  18
ATOM     18  O   UNL     1      -1.339  -0.499   0.012  0.00  0.00    -0.484 OA
BRANCH  18  20
ATOM     19  C   UNL     1       0.290   1.280  -0.136  0.00  0.00    +0.057 C 
ATOM     20  C   UNL     1       0.064  -0.228  -0.010  0.00  0.00    +0.203 C 
BRANCH  20  21
ATOM     21  C   UNL     1       0.693  -0.725   1.266  0.00  0.00    +0.032 A 
ATOM     22  C   UNL     1       0.081  -0.475   2.481  0.00  0.00    +0.049 A 
ATOM     23  C   UNL     1       0.657  -0.932   3.653  0.00  0.00    +0.023 A 
ATOM     24  C   UNL     1       1.844  -1.639   3.611  0.00  0.00    +0.041 A 
ATOM     25  C   UNL     1       2.457  -1.890   2.396  0.00  0.00    +0.142 A 
ATOM     26  C   UNL     1       1.877  -1.437   1.221  0.00  0.00    +0.084 A 
ATOM     27 CL   UNL     1       2.641  -1.757  -0.304  0.00  0.00    -0.080 Cl
ATOM     28  F   UNL     1       3.618  -2.581   2.354  0.00  0.00    -0.204 F 
ATOM     29 CL   UNL     1      -1.410   0.412   2.536  0.00  0.00    -0.083 Cl
ENDBRANCH  20  21
ENDBRANCH  18  20
ENDBRANCH   1  18
TORSDOF 5
