REMARK  Name = CHEMBL399698
REMARK  12 active torsions:
REMARK  status: ('A' for Active; 'I' for Inactive)
REMARK    1  A    between atoms: C_1  and  C_2
REMARK    2  A    between atoms: C_3  and  O_33
REMARK    3  A    between atoms: C_7  and  O_11
REMARK    4  A    between atoms: O_11  and  C_12
REMARK    5  A    between atoms: C_15  and  N_19
REMARK    6  A    between atoms: C_20  and  C_22
REMARK    7  A    between atoms: C_22  and  C_23
REMARK    8  A    between atoms: N_25  and  C_26
REMARK    9  A    between atoms: O_33  and  C_34
REMARK   10  A    between atoms: C_34  and  C_35
REMARK   11  A    between atoms: C_35  and  N_36
REMARK   12  A    between atoms: N_39  and  C_42
REMARK                            x       y       z     vdW  Elec       q    Type
REMARK                         _______ _______ _______ _____ _____    ______ ____
ROOT
ATOM      1  C   UNL     1      -0.283   2.609   4.082  0.00  0.00    +0.166 A 
ATOM      2  C   UNL     1      -1.546   2.785   4.625  0.00  0.00    +0.051 A 
ATOM      3  C   UNL     1      -1.684   3.154   5.949  0.00  0.00    +0.027 A 
ATOM      4  C   UNL     1      -0.558   3.350   6.737  0.00  0.00    +0.036 A 
ATOM      5  C   UNL     1       0.708   3.175   6.194  0.00  0.00    +0.065 A 
ATOM      6  C   UNL     1       0.846   2.799   4.870  0.00  0.00    +0.167 A 
ATOM      7  F   UNL     1       2.076   2.623   4.342  0.00  0.00    -0.202 F 
ENDROOT
BRANCH   4   8
ATOM      8  N   UNL     1      -0.698   3.726   8.079  0.00  0.00    -0.285 N 
ATOM      9  C   UNL     1       0.227   3.350   8.984  0.00  0.00    +0.226 C 
ATOM     10  O   UNL     1       1.132   2.612   8.656  0.00  0.00    -0.275 OA
ATOM     11  H   UNL     1      -1.461   4.257   8.356  0.00  0.00    +0.155 HD
BRANCH   9  12
ATOM     12  C   UNL     1       0.136   3.846  10.404  0.00  0.00    +0.192 C 
BRANCH  12  13
ATOM     13  C   UNL     1       1.281   3.283  11.207  0.00  0.00    +0.226 C 
ATOM     14  O   UNL     1       2.091   2.551  10.678  0.00  0.00    -0.275 OA
ATOM     15  N   UNL     1       1.405   3.593  12.512  0.00  0.00    -0.285 N 
ATOM     16  H   UNL     1       0.723   4.126  12.951  0.00  0.00    +0.155 HD
BRANCH  15  17
ATOM     17  C   UNL     1       2.518   3.146  13.235  0.00  0.00    +0.034 A 
ATOM     18  C   UNL     1       2.387   2.811  14.576  0.00  0.00    +0.026 A 
ATOM     19  C   UNL     1       3.486   2.371  15.288  0.00  0.00    +0.040 A 
ATOM     20  C   UNL     1       4.718   2.264  14.665  0.00  0.00    +0.124 A 
ATOM     21  C   UNL     1       4.850   2.597  13.327  0.00  0.00    +0.040 A 
ATOM     22  C   UNL     1       3.753   3.032  12.611  0.00  0.00    +0.026 A 
ATOM     23  F   UNL     1       5.791   1.833  15.362  0.00  0.00    -0.205 F 
ENDBRANCH  15  17
ENDBRANCH  12  13
ENDBRANCH   9  12
ENDBRANCH   4   8
BRANCH   1  24
ATOM     24  O   UNL     1      -0.148   2.245   2.778  0.00  0.00    -0.433 OA
BRANCH  24  31
ATOM     25  C   UNL     1      -0.201   2.610  -0.292  0.00  0.00    +0.050 C 
ATOM     26  C   UNL     1      -0.055   1.127  -0.065  0.00  0.00    +0.023 A 
ATOM     27  C   UNL     1       0.042   0.140  -1.051  0.00  0.00    +0.144 A 
ATOM     28  C   UNL     1       0.161  -1.065  -0.427  0.00  0.00    +0.159 A 
ATOM     29  N   UNL     1       0.141  -0.871   0.912  0.00  0.00    -0.229 N 
ATOM     30  C   UNL     1       0.015   0.484   1.157  0.00  0.00    +0.134 A 
ATOM     31  C   UNL     1      -0.021   0.927   2.496  0.00  0.00    +0.248 A 
ATOM     32  N   UNL     1       0.070   0.041   3.472  0.00  0.00    -0.198 NA
ATOM     33  C   UNL     1       0.195  -1.261   3.223  0.00  0.00    +0.247 A 
ATOM     34  N   UNL     1       0.227  -1.739   2.010  0.00  0.00    -0.155 NA
BRANCH  27  35
ATOM     35  O   UNL     1       0.021   0.347  -2.397  0.00  0.00    -0.489 OA
BRANCH  35  36
ATOM     36  C   UNL     1       0.134  -0.806  -3.233  0.00  0.00    +0.244 C 
BRANCH  36  37
ATOM     37  C   UNL     1       0.091  -0.378  -4.701  0.00  0.00    +0.125 C 
BRANCH  37  38
ATOM     38  N   UNL     1       1.259   0.462  -5.000  0.00  0.00    -0.303 NA
ATOM     39  C   UNL     1       1.037   1.258  -6.216  0.00  0.00    +0.066 C 
ATOM     40  C   UNL     1       2.248   2.161  -6.459  0.00  0.00    -0.064 C 
ATOM     41  N   UNL     1       3.453   1.335  -6.607  0.00  0.00    +0.379 N 
ATOM     42  C   UNL     1       3.675   0.564  -5.377  0.00  0.00    -0.064 C 
ATOM     43  C   UNL     1       2.476  -0.352  -5.125  0.00  0.00    +0.066 C 
ATOM     44  C   UNL     1       4.613   2.201  -6.859  0.00  0.00    -0.096 C 
ATOM     45  H   UNL     1       3.333   0.701  -7.383  0.00  0.00    -0.082 HD
ENDBRANCH  37  38
ENDBRANCH  36  37
ENDBRANCH  35  36
ENDBRANCH  27  35
ENDBRANCH  24  31
ENDBRANCH   1  24
TORSDOF 10
