REMARK  Name = CHEMBL254086
REMARK  7 active torsions:
REMARK  status: ('A' for Active; 'I' for Inactive)
REMARK    1  A    between atoms: C_6  and  C_7
REMARK    2  A    between atoms: C_7  and  C_8
REMARK    3  A    between atoms: N_13  and  C_14
REMARK    4  A    between atoms: C_17  and  O_21
REMARK    5  A    between atoms: O_21  and  C_22
REMARK    6  A    between atoms: C_24  and  C_31
REMARK    7  A    between atoms: C_35  and  N_38
REMARK                            x       y       z     vdW  Elec       q    Type
REMARK                         _______ _______ _______ _____ _____    ______ ____
ROOT
ATOM      1  C   UNL     1      -4.810  -2.762  -4.538  0.00  0.00    +0.038 A 
ATOM      2  C   UNL     1      -4.604  -4.040  -5.041  0.00  0.00    +0.027 A 
ATOM      3  C   UNL     1      -5.084  -4.376  -6.292  0.00  0.00    +0.051 A 
ATOM      4  C   UNL     1      -5.772  -3.438  -7.046  0.00  0.00    +0.166 A 
ATOM      5  C   UNL     1      -5.979  -2.159  -6.545  0.00  0.00    +0.167 A 
ATOM      6  C   UNL     1      -5.503  -1.823  -5.291  0.00  0.00    +0.065 A 
ATOM      7  F   UNL     1      -6.649  -1.245  -7.280  0.00  0.00    -0.202 F 
ENDROOT
BRANCH   1  13
ATOM      8  C   UNL     1      -5.314  -0.503  -0.432  0.00  0.00    +0.225 C 
ATOM      9  O   UNL     1      -6.322   0.024  -0.852  0.00  0.00    -0.275 OA
ATOM     10  N   UNL     1      -4.610  -1.338  -1.222  0.00  0.00    -0.240 N 
ATOM     11  C   UNL     1      -5.027  -1.587  -2.479  0.00  0.00    +0.310 C 
ATOM     12  O   UNL     1      -6.037  -1.058  -2.901  0.00  0.00    -0.252 OA
ATOM     13  N   UNL     1      -4.323  -2.421  -3.270  0.00  0.00    -0.269 N 
ATOM     14  H   UNL     1      -3.804  -1.760  -0.886  0.00  0.00    +0.159 HD
ATOM     15  H   UNL     1      -3.479  -2.786  -2.960  0.00  0.00    +0.156 HD
BRANCH   8  16
ATOM     16  C   UNL     1      -4.849  -0.225   0.974  0.00  0.00    +0.131 C 
BRANCH  16  22
ATOM     17  C   UNL     1      -6.891   0.247   2.342  0.00  0.00    +0.007 A 
ATOM     18  C   UNL     1      -7.767   1.124   2.953  0.00  0.00    +0.038 A 
ATOM     19  C   UNL     1      -7.556   2.489   2.860  0.00  0.00    +0.123 A 
ATOM     20  C   UNL     1      -6.467   2.974   2.156  0.00  0.00    +0.038 A 
ATOM     21  C   UNL     1      -5.592   2.095   1.546  0.00  0.00    +0.007 A 
ATOM     22  C   UNL     1      -5.804   0.732   1.639  0.00  0.00    -0.038 A 
ATOM     23  F   UNL     1      -8.413   3.347   3.456  0.00  0.00    -0.205 F 
ENDBRANCH  16  22
ENDBRANCH   8  16
ENDBRANCH   1  13
BRANCH   4  24
ATOM     24  O   UNL     1      -6.244  -3.770  -8.278  0.00  0.00    -0.433 OA
BRANCH  24  25
ATOM     25  C   UNL     1      -5.475  -3.477  -9.353  0.00  0.00    +0.248 A 
ATOM     26  C   UNL     1      -5.867  -3.888 -10.641  0.00  0.00    +0.134 A 
ATOM     27  C   UNL     1      -6.964  -4.595 -11.139  0.00  0.00    +0.007 A 
ATOM     28  C   UNL     1      -6.781  -4.688 -12.533  0.00  0.00    +0.030 A 
ATOM     29  C   UNL     1      -5.622  -4.058 -12.843  0.00  0.00    +0.114 A 
ATOM     30  N   UNL     1      -5.058  -3.570 -11.713  0.00  0.00    -0.233 N 
ATOM     31  N   UNL     1      -3.880  -2.851 -11.465  0.00  0.00    -0.155 NA
ATOM     32  C   UNL     1      -3.575  -2.500 -10.245  0.00  0.00    +0.247 A 
ATOM     33  N   UNL     1      -4.351  -2.798  -9.206  0.00  0.00    -0.198 NA
BRANCH  27  34
ATOM     34  C   UNL     1      -8.090  -5.139 -10.359  0.00  0.00    +0.009 C 
ATOM     35  C   UNL     1      -8.682  -6.265 -10.743  0.00  0.00    -0.069 C 
ATOM     36  C   UNL     1      -8.109  -7.098 -11.869  0.00  0.00    +0.029 C 
ATOM     37  C   UNL     1      -7.977  -8.546 -11.386  0.00  0.00    -0.012 C 
ATOM     38  C   UNL     1      -9.330  -9.034 -10.867  0.00  0.00    -0.075 C 
ATOM     39  C   UNL     1      -9.747  -8.208  -9.648  0.00  0.00    -0.012 C 
ATOM     40  C   UNL     1      -9.942  -6.751 -10.062  0.00  0.00    +0.029 C 
BRANCH  38  41
ATOM     41  N   UNL     1      -9.226 -10.448 -10.486  0.00  0.00    +0.380 N 
ATOM     42  H   UNL     1      -8.531 -10.552  -9.762  0.00  0.00    -0.090 HD
ATOM     43  H   UNL     1     -10.119 -10.771 -10.144  0.00  0.00    -0.090 HD
ATOM     44  H   UNL     1      -8.957 -10.995 -11.291  0.00  0.00    -0.090 HD
ENDBRANCH  38  41
ENDBRANCH  27  34
ENDBRANCH  24  25
ENDBRANCH   4  24
TORSDOF 7
