REMARK  Name = CHEMBL454356
REMARK  5 active torsions:
REMARK  status: ('A' for Active; 'I' for Inactive)
REMARK    1  A    between atoms: C_6  and  C_7
REMARK    2  A    between atoms: C_12  and  C_15
REMARK    3  A    between atoms: N_17  and  C_18
REMARK    4  A    between atoms: C_21  and  O_25
REMARK    5  A    between atoms: O_25  and  C_26
REMARK                            x       y       z     vdW  Elec       q    Type
REMARK                         _______ _______ _______ _____ _____    ______ ____
ROOT
ATOM      1  C   UNL     1      -3.962  -2.839   2.441  0.00  0.00    +0.253 C 
ATOM      2  O   UNL     1      -5.089  -2.911   2.894  0.00  0.00    -0.270 OA
ATOM      3  N   UNL     1      -2.952  -3.501   3.040  0.00  0.00    -0.281 N 
ATOM      4  H   UNL     1      -2.038  -3.362   2.745  0.00  0.00    +0.155 HD
ENDROOT
BRANCH   1  10
ATOM      5  C   UNL     1      -2.201  -1.190  -0.591  0.00  0.00    +0.045 A 
ATOM      6  C   UNL     1      -3.267  -0.472  -1.043  0.00  0.00    +0.094 A 
ATOM      7  N   UNL     1      -4.466  -0.516  -0.417  0.00  0.00    -0.366 N 
ATOM      8  H   UNL     1      -5.194   0.013  -0.778  0.00  0.00    +0.165 HD
ATOM      9  C   UNL     1      -4.696  -1.256   0.678  0.00  0.00    +0.099 A 
ATOM     10  C   UNL     1      -3.701  -2.030   1.239  0.00  0.00    +0.100 A 
ATOM     11  C   UNL     1      -2.375  -2.030   0.602  0.00  0.00    +0.201 A 
ATOM     12  O   UNL     1      -1.456  -2.697   1.048  0.00  0.00    -0.286 OA
BRANCH   5  18
ATOM     13  C   UNL     1      -0.175   0.065  -1.325  0.00  0.00    +0.011 A 
ATOM     14  C   UNL     1       1.040   0.117  -1.976  0.00  0.00    +0.039 A 
ATOM     15  C   UNL     1       1.545  -1.014  -2.596  0.00  0.00    +0.123 A 
ATOM     16  C   UNL     1       0.833  -2.203  -2.565  0.00  0.00    +0.039 A 
ATOM     17  C   UNL     1      -0.383  -2.264  -1.916  0.00  0.00    +0.011 A 
ATOM     18  C   UNL     1      -0.894  -1.128  -1.291  0.00  0.00    -0.013 A 
ATOM     19  F   UNL     1       2.735  -0.959  -3.234  0.00  0.00    -0.205 F 
ENDBRANCH   5  18
ENDBRANCH   1  10
BRANCH   3  20
ATOM     20  C   UNL     1      -3.221  -4.388   4.089  0.00  0.00    +0.037 A 
ATOM     21  C   UNL     1      -4.357  -5.186   4.050  0.00  0.00    +0.027 A 
ATOM     22  C   UNL     1      -4.623  -6.062   5.084  0.00  0.00    +0.051 A 
ATOM     23  C   UNL     1      -3.756  -6.145   6.163  0.00  0.00    +0.164 A 
ATOM     24  C   UNL     1      -2.619  -5.348   6.204  0.00  0.00    +0.167 A 
ATOM     25  C   UNL     1      -2.349  -4.475   5.167  0.00  0.00    +0.065 A 
ATOM     26  F   UNL     1      -1.774  -5.429   7.256  0.00  0.00    -0.202 F 
BRANCH  23  27
ATOM     27  O   UNL     1      -4.019  -7.007   7.182  0.00  0.00    -0.452 OA
BRANCH  27  28
ATOM     28  C   UNL     1      -4.638  -6.519   8.286  0.00  0.00    +0.141 A 
ATOM     29  C   UNL     1      -4.984  -5.176   8.378  0.00  0.00    +0.066 A 
ATOM     30  C   UNL     1      -5.615  -4.716   9.520  0.00  0.00    +0.117 A 
ATOM     31  N   UNL     1      -5.896  -5.519  10.525  0.00  0.00    -0.237 NA
ATOM     32  C   UNL     1      -5.591  -6.811  10.496  0.00  0.00    +0.142 A 
ATOM     33  C   UNL     1      -4.954  -7.354   9.366  0.00  0.00    +0.061 A 
ATOM     34  C   UNL     1      -4.768  -8.779   9.646  0.00  0.00    +0.032 A 
ATOM     35  C   UNL     1      -5.282  -9.007  10.864  0.00  0.00    +0.085 A 
ATOM     36  N   UNL     1      -5.770  -7.839  11.389  0.00  0.00    -0.346 N 
ATOM     37  H   UNL     1      -6.190  -7.753  12.259  0.00  0.00    +0.167 HD
ENDBRANCH  27  28
ENDBRANCH  23  27
ENDBRANCH   3  20
TORSDOF 5
