REMARK  Name = CHEMBL251980
REMARK  10 active torsions:
REMARK  status: ('A' for Active; 'I' for Inactive)
REMARK    1  A    between atoms: C_1  and  C_2
REMARK    2  A    between atoms: C_3  and  O_28
REMARK    3  A    between atoms: C_7  and  O_11
REMARK    4  A    between atoms: O_11  and  C_12
REMARK    5  A    between atoms: C_15  and  N_19
REMARK    6  A    between atoms: C_20  and  C_22
REMARK    7  A    between atoms: O_28  and  C_29
REMARK    8  A    between atoms: C_29  and  C_30
REMARK    9  A    between atoms: C_30  and  N_31
REMARK   10  A    between atoms: N_34  and  C_37
REMARK                            x       y       z     vdW  Elec       q    Type
REMARK                         _______ _______ _______ _____ _____    ______ ____
ROOT
ATOM      1  C   UNL     1       0.125   1.668   0.061  0.00  0.00    +0.050 C 
ATOM      2  C   UNL     1       0.096   0.163   0.138  0.00  0.00    +0.023 A 
ATOM      3  C   UNL     1       0.043  -0.724  -0.941  0.00  0.00    +0.144 A 
ATOM      4  C   UNL     1       0.032  -1.991  -0.441  0.00  0.00    +0.159 A 
ATOM      5  N   UNL     1       0.076  -1.931   0.910  0.00  0.00    -0.229 N 
ATOM      6  C   UNL     1       0.122  -0.602   1.289  0.00  0.00    +0.134 A 
ATOM      7  C   UNL     1       0.179  -0.295   2.665  0.00  0.00    +0.248 A 
ATOM      8  N   UNL     1       0.190  -1.279   3.547  0.00  0.00    -0.198 NA
ATOM      9  C   UNL     1       0.149  -2.555   3.169  0.00  0.00    +0.247 A 
ATOM     10  N   UNL     1       0.086  -2.909   1.915  0.00  0.00    -0.155 NA
ENDROOT
BRANCH   7  11
ATOM     11  O   UNL     1       0.222   0.994   3.077  0.00  0.00    -0.433 OA
BRANCH  11  12
ATOM     12  C   UNL     1       0.171   1.239   4.414  0.00  0.00    +0.166 A 
ATOM     13  C   UNL     1      -1.048   1.495   5.026  0.00  0.00    +0.051 A 
ATOM     14  C   UNL     1      -1.101   1.744   6.383  0.00  0.00    +0.027 A 
ATOM     15  C   UNL     1       0.066   1.738   7.137  0.00  0.00    +0.037 A 
ATOM     16  C   UNL     1       1.286   1.482   6.526  0.00  0.00    +0.065 A 
ATOM     17  C   UNL     1       1.338   1.227   5.168  0.00  0.00    +0.167 A 
ATOM     18  F   UNL     1       2.524   0.972   4.573  0.00  0.00    -0.202 F 
BRANCH  15  19
ATOM     19  N   UNL     1       0.011   1.992   8.512  0.00  0.00    -0.281 N 
ATOM     20  C   UNL     1       1.010   2.670   9.113  0.00  0.00    +0.250 C 
ATOM     21  O   UNL     1       1.998   2.985   8.478  0.00  0.00    -0.270 OA
ATOM     22  H   UNL     1      -0.745   1.680   9.034  0.00  0.00    +0.155 HD
BRANCH  20  23
ATOM     23  C   UNL     1       0.904   3.029  10.543  0.00  0.00    +0.055 A 
ATOM     24  C   UNL     1       1.932   3.738  11.176  0.00  0.00    +0.016 A 
ATOM     25  C   UNL     1       1.784   4.050  12.516  0.00  0.00    +0.020 A 
ATOM     26  C   UNL     1       0.636   3.656  13.180  0.00  0.00    +0.111 A 
ATOM     27  N   UNL     1      -0.317   2.988  12.557  0.00  0.00    -0.263 NA
ATOM     28  C   UNL     1      -0.225   2.673  11.282  0.00  0.00    +0.123 A 
ENDBRANCH  20  23
ENDBRANCH  15  19
ENDBRANCH  11  12
ENDBRANCH   7  11
BRANCH   3  29
ATOM     29  O   UNL     1       0.009  -0.382  -2.259  0.00  0.00    -0.489 OA
BRANCH  29  30
ATOM     30  C   UNL     1      -0.043  -1.451  -3.205  0.00  0.00    +0.244 C 
BRANCH  30  31
ATOM     31  C   UNL     1      -0.076  -0.876  -4.623  0.00  0.00    +0.125 C 
BRANCH  31  32
ATOM     32  N   UNL     1       1.173  -0.149  -4.885  0.00  0.00    -0.303 NA
ATOM     33  C   UNL     1       1.014   0.782  -6.011  0.00  0.00    +0.066 C 
ATOM     34  C   UNL     1       2.316   1.560  -6.213  0.00  0.00    -0.064 C 
ATOM     35  N   UNL     1       3.412   0.620  -6.484  0.00  0.00    +0.379 N 
ATOM     36  C   UNL     1       3.575  -0.288  -5.341  0.00  0.00    -0.064 C 
ATOM     37  C   UNL     1       2.283  -1.081  -5.132  0.00  0.00    +0.066 C 
ATOM     38  C   UNL     1       4.658   1.369  -6.696  0.00  0.00    -0.096 C 
ATOM     39  H   UNL     1       3.197   0.084  -7.312  0.00  0.00    -0.082 HD
ENDBRANCH  31  32
ENDBRANCH  30  31
ENDBRANCH  29  30
ENDBRANCH   3  29
TORSDOF 8
