REMARK  Name = CHEMBL552195
REMARK  3 active torsions:
REMARK  status: ('A' for Active; 'I' for Inactive)
REMARK    1  A    between atoms: C_4  and  S_10
REMARK    2  A    between atoms: C_5  and  N_7
REMARK    3  A    between atoms: S_10  and  C_13
REMARK                            x       y       z     vdW  Elec       q    Type
REMARK                         _______ _______ _______ _____ _____    ______ ____
ROOT
ATOM      1  S   UNL     1       3.828  -0.971  -0.356  0.00  0.00    +0.029 S 
ATOM      2  O   UNL     1       3.530  -2.010  -1.278  0.00  0.00    -0.164 OA
ATOM      3  O   UNL     1       4.876  -0.036  -0.574  0.00  0.00    -0.164 OA
ENDROOT
BRANCH   1   4
ATOM      4  C   UNL     1       4.161  -1.749   1.190  0.00  0.00    +0.120 A 
ATOM      5  C   UNL     1       4.163  -3.068   1.436  0.00  0.00    +0.112 A 
ATOM      6  N   UNL     1       4.465  -3.296   2.752  0.00  0.00    -0.344 N 
ATOM      7  H   UNL     1       4.526  -4.172   3.165  0.00  0.00    +0.167 HD
ATOM      8  C   UNL     1       4.670  -2.103   3.402  0.00  0.00    +0.140 A 
ATOM      9  C   UNL     1       4.495  -1.081   2.449  0.00  0.00    +0.044 A 
ATOM     10  C   UNL     1       4.650   0.252   2.834  0.00  0.00    +0.015 A 
ATOM     11  C   UNL     1       4.977   0.514   4.152  0.00  0.00    +0.020 A 
ATOM     12  C   UNL     1       5.138  -0.542   5.036  0.00  0.00    +0.113 A 
ATOM     13  N   UNL     1       4.980  -1.792   4.653  0.00  0.00    -0.237 NA
ENDBRANCH   1   4
BRANCH   1  17
ATOM     14  C   UNL     1       0.029   1.439   0.148  0.00  0.00    +0.002 A 
ATOM     15  C   UNL     1       1.219   2.078  -0.150  0.00  0.00    +0.002 A 
ATOM     16  C   UNL     1       2.378   1.342  -0.304  0.00  0.00    +0.030 A 
ATOM     17  C   UNL     1       2.350  -0.033  -0.159  0.00  0.00    +0.124 A 
ATOM     18  C   UNL     1       1.161  -0.671   0.141  0.00  0.00    +0.151 A 
ATOM     19  C   UNL     1       0.000   0.065   0.293  0.00  0.00    +0.035 A 
BRANCH  18  20
ATOM     20  N   UNL     1       1.130  -2.143   0.296  0.00  0.00    +0.058 N 
ATOM     21  O   UNL     1       1.654  -2.849  -0.534  0.00  0.00    -0.126 OA
ATOM     22  O   UNL     1       0.580  -2.639   1.252  0.00  0.00    -0.126 OA
ENDBRANCH  18  20
ENDBRANCH   1  17
TORSDOF 3
