REMARK  Name = CHEMBL254761
REMARK  9 active torsions:
REMARK  status: ('A' for Active; 'I' for Inactive)
REMARK    1  A    between atoms: C_1  and  N_2
REMARK    2  A    between atoms: C_8  and  C_10
REMARK    3  A    between atoms: C_15  and  O_19
REMARK    4  A    between atoms: O_19  and  C_20
REMARK    5  A    between atoms: C_23  and  N_27
REMARK    6  A    between atoms: N_27  and  C_28
REMARK    7  A    between atoms: C_28  and  N_30
REMARK    8  A    between atoms: C_31  and  C_33
REMARK    9  A    between atoms: C_33  and  C_34
REMARK                            x       y       z     vdW  Elec       q    Type
REMARK                         _______ _______ _______ _____ _____    ______ ____
ROOT
ATOM      1  C   UNL     1       3.555  -4.396   7.236  0.00  0.00    +0.164 A 
ATOM      2  C   UNL     1       3.223  -5.535   7.953  0.00  0.00    +0.051 A 
ATOM      3  C   UNL     1       3.717  -5.718   9.229  0.00  0.00    +0.027 A 
ATOM      4  C   UNL     1       4.548  -4.760   9.796  0.00  0.00    +0.036 A 
ATOM      5  C   UNL     1       4.882  -3.619   9.079  0.00  0.00    +0.065 A 
ATOM      6  C   UNL     1       4.391  -3.440   7.799  0.00  0.00    +0.167 A 
ATOM      7  F   UNL     1       4.720  -2.332   7.098  0.00  0.00    -0.202 F 
ENDROOT
BRANCH   4   8
ATOM      8  N   UNL     1       5.048  -4.945  11.091  0.00  0.00    -0.297 N 
ATOM      9  H   UNL     1       5.059  -4.205  11.717  0.00  0.00    +0.154 HD
BRANCH   8  10
ATOM     10  C   UNL     1       5.516  -6.152  11.467  0.00  0.00    +0.141 C 
ATOM     11  S   UNL     1       5.633  -7.419  10.321  0.00  0.00    -0.018 S 
BRANCH  10  12
ATOM     12  N   UNL     1       5.890  -6.362  12.744  0.00  0.00    -0.267 N 
ATOM     13  C   UNL     1       6.357  -7.569  13.120  0.00  0.00    +0.223 C 
ATOM     14  O   UNL     1       6.440  -8.466  12.309  0.00  0.00    -0.275 OA
ATOM     15  H   UNL     1       5.823  -5.644  13.393  0.00  0.00    +0.157 HD
BRANCH  13  16
ATOM     16  C   UNL     1       6.775  -7.804  14.549  0.00  0.00    +0.131 C 
BRANCH  16  17
ATOM     17  C   UNL     1       7.256  -9.224  14.705  0.00  0.00    -0.039 A 
ATOM     18  C   UNL     1       6.361 -10.223  15.040  0.00  0.00    +0.004 A 
ATOM     19  C   UNL     1       6.802 -11.525  15.183  0.00  0.00    +0.000 A 
ATOM     20  C   UNL     1       8.137 -11.829  14.991  0.00  0.00    +0.000 A 
ATOM     21  C   UNL     1       9.031 -10.829  14.655  0.00  0.00    +0.000 A 
ATOM     22  C   UNL     1       8.590  -9.528  14.507  0.00  0.00    +0.004 A 
ENDBRANCH  16  17
ENDBRANCH  13  16
ENDBRANCH  10  12
ENDBRANCH   8  10
ENDBRANCH   4   8
BRANCH   1  23
ATOM     23  O   UNL     1       3.067  -4.217   5.979  0.00  0.00    -0.452 OA
BRANCH  23  29
ATOM     24  C   UNL     1       2.527  -3.768   1.165  0.00  0.00    +0.077 A 
ATOM     25  C   UNL     1       3.740  -4.376   1.261  0.00  0.00    +0.049 A 
ATOM     26  C   UNL     1       4.271  -4.687   2.525  0.00  0.00    +0.082 A 
ATOM     27  C   UNL     1       3.463  -4.327   3.626  0.00  0.00    +0.080 A 
ATOM     28  S   UNL     1       2.040  -3.582   2.872  0.00  0.00    -0.078 S 
ATOM     29  C   UNL     1       3.856  -4.571   4.933  0.00  0.00    +0.146 A 
ATOM     30  C   UNL     1       5.085  -5.190   5.138  0.00  0.00    +0.067 A 
ATOM     31  C   UNL     1       5.848  -5.527   4.029  0.00  0.00    +0.115 A 
ATOM     32  N   UNL     1       5.453  -5.285   2.807  0.00  0.00    -0.254 NA
BRANCH  24  40
ATOM     33  C   UNL     1       0.759   1.932  -0.648  0.00  0.00    +0.105 C 
ATOM     34  N   UNL     1       0.551   0.507  -0.360  0.00  0.00    -0.302 NA
ATOM     35  C   UNL     1       0.793  -0.312  -1.556  0.00  0.00    +0.103 C 
ATOM     36  C   UNL     1       0.393  -1.763  -1.267  0.00  0.00    +0.123 C 
ATOM     37  N   UNL     1       1.097  -2.209  -0.055  0.00  0.00    -0.295 N 
ATOM     38  C   UNL     1       1.014  -1.366   1.148  0.00  0.00    +0.123 C 
ATOM     39  C   UNL     1       1.389   0.069   0.764  0.00  0.00    +0.103 C 
ATOM     40  C   UNL     1       1.799  -3.359  -0.047  0.00  0.00    +0.253 C 
ATOM     41  O   UNL     1       1.831  -4.060  -1.040  0.00  0.00    -0.269 OA
ENDBRANCH  24  40
ENDBRANCH  23  29
ENDBRANCH   1  23
TORSDOF 8
