REMARK  Name = CHEMBL600632
REMARK  10 active torsions:
REMARK  status: ('A' for Active; 'I' for Inactive)
REMARK    1  A    between atoms: C_1  and  N_2
REMARK    2  A    between atoms: C_4  and  C_7
REMARK    3  A    between atoms: C_12  and  O_16
REMARK    4  A    between atoms: O_16  and  C_17
REMARK    5  A    between atoms: C_20  and  N_24
REMARK    6  A    between atoms: C_25  and  C_27
REMARK    7  A    between atoms: C_27  and  C_28
REMARK    8  A    between atoms: C_28  and  C_29
REMARK    9  A    between atoms: C_28  and  N_33
REMARK   10  A    between atoms: N_33  and  C_34
REMARK                            x       y       z     vdW  Elec       q    Type
REMARK                         _______ _______ _______ _____ _____    ______ ____
ROOT
ATOM      1  C   UNL     1       0.115  -6.699  -6.628  0.00  0.00    +0.164 A 
ATOM      2  C   UNL     1       0.073  -8.023  -6.218  0.00  0.00    +0.051 A 
ATOM      3  C   UNL     1       0.056  -9.037  -7.156  0.00  0.00    +0.027 A 
ATOM      4  C   UNL     1       0.082  -8.732  -8.510  0.00  0.00    +0.036 A 
ATOM      5  C   UNL     1       0.125  -7.406  -8.922  0.00  0.00    +0.065 A 
ATOM      6  C   UNL     1       0.135  -6.391  -7.983  0.00  0.00    +0.167 A 
ATOM      7  F   UNL     1       0.171  -5.101  -8.383  0.00  0.00    -0.202 F 
ENDROOT
BRANCH   4   8
ATOM      8  N   UNL     1       0.066  -9.760  -9.461  0.00  0.00    -0.285 N 
ATOM      9  C   UNL     1      -0.642 -10.883  -9.227  0.00  0.00    +0.219 C 
ATOM     10  O   UNL     1      -1.207 -11.033  -8.164  0.00  0.00    -0.275 OA
ATOM     11  H   UNL     1       0.565  -9.665 -10.287  0.00  0.00    +0.155 HD
BRANCH   9  12
ATOM     12  C   UNL     1      -0.731 -11.952 -10.286  0.00  0.00    +0.127 C 
BRANCH  12  13
ATOM     13  C   UNL     1      -1.587 -13.110  -9.770  0.00  0.00    +0.184 C 
BRANCH  13  14
ATOM     14  C   UNL     1      -1.576 -14.248 -10.793  0.00  0.00    +0.408 C 
ATOM     15  F   UNL     1      -0.262 -14.688 -10.986  0.00  0.00    -0.169 F 
ATOM     16  F   UNL     1      -2.359 -15.307 -10.321  0.00  0.00    -0.169 F 
ATOM     17  F   UNL     1      -2.096 -13.788 -12.007  0.00  0.00    -0.169 F 
ENDBRANCH  13  14
BRANCH  13  18
ATOM     18  N   UNL     1      -2.963 -12.649  -9.568  0.00  0.00    -0.333 N 
ATOM     19  H   UNL     1      -3.299 -11.890 -10.070  0.00  0.00    +0.147 HD
BRANCH  18  20
ATOM     20  C   UNL     1      -3.791 -13.301  -8.652  0.00  0.00    +0.028 A 
ATOM     21  C   UNL     1      -3.310 -14.385  -7.928  0.00  0.00    +0.023 A 
ATOM     22  C   UNL     1      -4.132 -15.027  -7.022  0.00  0.00    +0.002 A 
ATOM     23  C   UNL     1      -5.432 -14.594  -6.837  0.00  0.00    +0.000 A 
ATOM     24  C   UNL     1      -5.914 -13.516  -7.557  0.00  0.00    +0.002 A 
ATOM     25  C   UNL     1      -5.096 -12.865  -8.460  0.00  0.00    +0.023 A 
ENDBRANCH  18  20
ENDBRANCH  13  18
ENDBRANCH  12  13
ENDBRANCH   9  12
ENDBRANCH   4   8
BRANCH   1  26
ATOM     26  O   UNL     1       0.131  -5.701  -5.705  0.00  0.00    -0.452 OA
BRANCH  26  32
ATOM     27  C   UNL     1      -1.048  -2.390  -2.347  0.00  0.00    +0.042 A 
ATOM     28  C   UNL     1      -2.256  -2.687  -2.890  0.00  0.00    +0.046 A 
ATOM     29  C   UNL     1      -2.348  -3.633  -3.928  0.00  0.00    +0.082 A 
ATOM     30  C   UNL     1      -1.123  -4.212  -4.327  0.00  0.00    +0.080 A 
ATOM     31  S   UNL     1       0.070  -3.429  -3.272  0.00  0.00    -0.081 S 
ATOM     32  C   UNL     1      -1.056  -5.156  -5.334  0.00  0.00    +0.146 A 
ATOM     33  C   UNL     1      -2.245  -5.531  -5.958  0.00  0.00    +0.067 A 
ATOM     34  C   UNL     1      -3.424  -4.940  -5.537  0.00  0.00    +0.115 A 
ATOM     35  N   UNL     1      -3.458  -4.048  -4.580  0.00  0.00    -0.254 NA
BRANCH  27  39
ATOM     36  C   UNL     1       1.388   0.355   1.050  0.00  0.00    +0.150 C 
ATOM     37  N   UNL     1       0.332  -0.236   0.224  0.00  0.00    -0.339 N 
ATOM     38  C   UNL     1       0.502  -1.172  -0.756  0.00  0.00    +0.115 A 
ATOM     39  C   UNL     1      -0.734  -1.437  -1.261  0.00  0.00    +0.095 A 
ATOM     40  N   UNL     1      -1.622  -0.671  -0.592  0.00  0.00    -0.235 NA
ATOM     41  C   UNL     1      -0.989   0.041   0.297  0.00  0.00    +0.199 A 
ENDBRANCH  27  39
ENDBRANCH  26  32
ENDBRANCH   1  26
TORSDOF 9
