REMARK  Name = CHEMBL399674
REMARK  10 active torsions:
REMARK  status: ('A' for Active; 'I' for Inactive)
REMARK    1  A    between atoms: C_1  and  C_2
REMARK    2  A    between atoms: C_3  and  O_27
REMARK    3  A    between atoms: C_7  and  O_11
REMARK    4  A    between atoms: O_11  and  C_12
REMARK    5  A    between atoms: C_15  and  N_19
REMARK    6  A    between atoms: C_20  and  C_22
REMARK    7  A    between atoms: O_27  and  C_28
REMARK    8  A    between atoms: C_28  and  C_29
REMARK    9  A    between atoms: C_29  and  N_30
REMARK   10  A    between atoms: N_33  and  C_36
REMARK                            x       y       z     vdW  Elec       q    Type
REMARK                         _______ _______ _______ _____ _____    ______ ____
ROOT
ATOM      1  C   UNL     1       0.111   1.665   0.039  0.00  0.00    +0.050 C 
ATOM      2  C   UNL     1       0.083   0.161   0.121  0.00  0.00    +0.023 A 
ATOM      3  C   UNL     1       0.028  -0.730  -0.955  0.00  0.00    +0.144 A 
ATOM      4  C   UNL     1       0.019  -1.996  -0.450  0.00  0.00    +0.159 A 
ATOM      5  N   UNL     1       0.065  -1.931   0.901  0.00  0.00    -0.229 N 
ATOM      6  C   UNL     1       0.111  -0.601   1.275  0.00  0.00    +0.134 A 
ATOM      7  C   UNL     1       0.170  -0.288   2.650  0.00  0.00    +0.248 A 
ATOM      8  N   UNL     1       0.183  -1.269   3.535  0.00  0.00    -0.198 NA
ATOM      9  C   UNL     1       0.142  -2.547   3.162  0.00  0.00    +0.247 A 
ATOM     10  N   UNL     1       0.078  -2.906   1.909  0.00  0.00    -0.155 NA
ENDROOT
BRANCH   7  11
ATOM     11  O   UNL     1       0.214   1.002   3.057  0.00  0.00    -0.433 OA
BRANCH  11  12
ATOM     12  C   UNL     1       0.165   1.251   4.393  0.00  0.00    +0.166 A 
ATOM     13  C   UNL     1      -1.052   1.509   5.006  0.00  0.00    +0.051 A 
ATOM     14  C   UNL     1      -1.103   1.763   6.363  0.00  0.00    +0.027 A 
ATOM     15  C   UNL     1       0.064   1.761   7.114  0.00  0.00    +0.037 A 
ATOM     16  C   UNL     1       1.284   1.503   6.502  0.00  0.00    +0.065 A 
ATOM     17  C   UNL     1       1.333   1.243   5.145  0.00  0.00    +0.167 A 
ATOM     18  F   UNL     1       2.518   0.986   4.549  0.00  0.00    -0.202 F 
BRANCH  15  19
ATOM     19  N   UNL     1       0.012   2.019   8.489  0.00  0.00    -0.281 N 
ATOM     20  C   UNL     1       1.012   2.700   9.085  0.00  0.00    +0.255 C 
ATOM     21  O   UNL     1       1.999   3.014   8.447  0.00  0.00    -0.269 OA
ATOM     22  H   UNL     1      -0.743   1.709   9.013  0.00  0.00    +0.155 HD
BRANCH  20  23
ATOM     23  C   UNL     1       0.909   3.061  10.502  0.00  0.00    +0.074 A 
ATOM     24  C   UNL     1       1.810   3.756  11.294  0.00  0.00    +0.021 A 
ATOM     25  C   UNL     1       1.433   3.945  12.602  0.00  0.00    +0.008 A 
ATOM     26  C   UNL     1       0.240   3.455  13.021  0.00  0.00    +0.046 A 
ATOM     27  S   UNL     1      -0.411   2.729  11.654  0.00  0.00    -0.092 S 
ENDBRANCH  20  23
ENDBRANCH  15  19
ENDBRANCH  11  12
ENDBRANCH   7  11
BRANCH   3  28
ATOM     28  O   UNL     1      -0.009  -0.393  -2.273  0.00  0.00    -0.489 OA
BRANCH  28  29
ATOM     29  C   UNL     1      -0.063  -1.466  -3.216  0.00  0.00    +0.244 C 
BRANCH  29  30
ATOM     30  C   UNL     1      -0.099  -0.896  -4.635  0.00  0.00    +0.125 C 
BRANCH  30  31
ATOM     31  N   UNL     1       1.150  -0.170  -4.903  0.00  0.00    -0.303 NA
ATOM     32  C   UNL     1       0.988   0.758  -6.032  0.00  0.00    +0.066 C 
ATOM     33  C   UNL     1       2.289   1.536  -6.240  0.00  0.00    -0.064 C 
ATOM     34  N   UNL     1       3.384   0.595  -6.511  0.00  0.00    +0.379 N 
ATOM     35  C   UNL     1       3.550  -0.309  -5.364  0.00  0.00    -0.064 C 
ATOM     36  C   UNL     1       2.259  -1.102  -5.149  0.00  0.00    +0.066 C 
ATOM     37  C   UNL     1       4.630   1.343  -6.728  0.00  0.00    -0.096 C 
ATOM     38  H   UNL     1       3.168   0.055  -7.335  0.00  0.00    -0.082 HD
ENDBRANCH  30  31
ENDBRANCH  29  30
ENDBRANCH  28  29
ENDBRANCH   3  28
TORSDOF 8
