REMARK  Name = CHEMBL497119
REMARK  4 active torsions:
REMARK  status: ('A' for Active; 'I' for Inactive)
REMARK    1  A    between atoms: C_3  and  C_6
REMARK    2  A    between atoms: C_12  and  C_15
REMARK    3  A    between atoms: C_15  and  C_16
REMARK    4  A    between atoms: C_19  and  O_22
REMARK                            x       y       z     vdW  Elec       q    Type
REMARK                         _______ _______ _______ _____ _____    ______ ____
ROOT
ATOM      1  C   UNL     1       3.572   0.619  -0.029  0.00  0.00    +0.127 A 
ATOM      2  C   UNL     1       4.241  -0.626  -0.048  0.00  0.00    +0.037 A 
ATOM      3  C   UNL     1       5.599  -0.669  -0.062  0.00  0.00    +0.052 A 
ATOM      4  C   UNL     1       6.325   0.538  -0.058  0.00  0.00    +0.178 A 
ATOM      5  N   UNL     1       7.615   0.829  -0.067  0.00  0.00    -0.128 NA
ATOM      6  N   UNL     1       7.763   2.108  -0.056  0.00  0.00    -0.132 NA
ATOM      7  C   UNL     1       6.593   2.698  -0.039  0.00  0.00    +0.159 A 
ATOM      8  N   UNL     1       5.647   1.734  -0.039  0.00  0.00    -0.196 N 
ATOM      9  N   UNL     1       4.251   1.748  -0.030  0.00  0.00    -0.160 NA
ENDROOT
BRANCH   1  12
ATOM     10  C   UNL     1      -0.016   1.344   0.009  0.00  0.00    +0.042 A 
ATOM     11  C   UNL     1       1.325   1.775  -0.001  0.00  0.00    +0.051 A 
ATOM     12  C   UNL     1       2.096   0.655  -0.014  0.00  0.00    +0.155 A 
ATOM     13  O   UNL     1       1.279  -0.417  -0.012  0.00  0.00    -0.461 OA
ATOM     14  C   UNL     1       0.002  -0.004   0.002  0.00  0.00    +0.196 A 
ENDBRANCH   1  12
BRANCH   7  15
ATOM     15  C   UNL     1       6.347   4.185  -0.021  0.00  0.00    +0.113 C 
BRANCH  15  16
ATOM     16  C   UNL     1       6.251   4.695  -1.436  0.00  0.00    -0.040 A 
ATOM     17  C   UNL     1       7.390   5.119  -2.096  0.00  0.00    +0.007 A 
ATOM     18  C   UNL     1       7.304   5.587  -3.393  0.00  0.00    +0.045 A 
ATOM     19  C   UNL     1       6.074   5.632  -4.033  0.00  0.00    +0.117 A 
ATOM     20  C   UNL     1       4.933   5.205  -3.369  0.00  0.00    +0.045 A 
ATOM     21  C   UNL     1       5.025   4.733  -2.074  0.00  0.00    +0.007 A 
BRANCH  19  22
ATOM     22  O   UNL     1       5.987   6.093  -5.309  0.00  0.00    -0.507 OA
ATOM     23  H   UNL     1       6.091   5.407  -5.982  0.00  0.00    +0.292 HD
ENDBRANCH  19  22
ENDBRANCH  15  16
ENDBRANCH   7  15
TORSDOF 4
