REMARK  Name = CHEMBL465791
REMARK  6 active torsions:
REMARK  status: ('A' for Active; 'I' for Inactive)
REMARK    1  A    between atoms: C_1  and  N_2
REMARK    2  A    between atoms: C_13  and  C_29
REMARK    3  A    between atoms: C_15  and  O_18
REMARK    4  A    between atoms: O_18  and  C_19
REMARK    5  A    between atoms: C_19  and  C_20
REMARK    6  A    between atoms: C_24  and  N_26
REMARK                            x       y       z     vdW  Elec       q    Type
REMARK                         _______ _______ _______ _____ _____    ______ ____
ROOT
ATOM      1  C   UNL     1       0.293   1.447   0.173  0.00  0.00    +0.105 C 
ATOM      2  N   UNL     1       0.160  -0.013   0.085  0.00  0.00    -0.302 NA
ATOM      3  C   UNL     1      -1.250  -0.418   0.154  0.00  0.00    +0.103 C 
ATOM      4  C   UNL     1      -1.360  -1.922  -0.122  0.00  0.00    +0.122 C 
ATOM      5  N   UNL     1      -0.463  -2.633   0.801  0.00  0.00    -0.312 N 
ATOM      6  C   UNL     1       0.938  -2.192   0.888  0.00  0.00    +0.122 C 
ATOM      7  C   UNL     1       0.957  -0.678   1.124  0.00  0.00    +0.103 C 
ATOM      8  C   UNL     1      -0.925  -3.692   1.569  0.00  0.00    +0.140 A 
ATOM      9  C   UNL     1      -2.194  -4.239   1.312  0.00  0.00    +0.155 A 
ATOM     10  N   UNL     1      -2.647  -5.239   2.028  0.00  0.00    -0.250 NA
ATOM     11  C   UNL     1      -1.896  -5.748   3.014  0.00  0.00    +0.093 A 
ATOM     12  C   UNL     1      -2.359  -6.820   3.795  0.00  0.00    +0.042 A 
ATOM     13  C   UNL     1      -1.576  -7.320   4.791  0.00  0.00    +0.060 A 
ATOM     14  C   UNL     1      -0.318  -6.785   5.052  0.00  0.00    +0.060 A 
ATOM     15  C   UNL     1       0.167  -5.742   4.315  0.00  0.00    +0.149 A 
ATOM     16  C   UNL     1      -0.617  -5.200   3.275  0.00  0.00    +0.133 A 
ATOM     17  N   UNL     1      -0.167  -4.182   2.532  0.00  0.00    -0.225 NA
ENDROOT
BRANCH  13  18
ATOM     18  C   UNL     1      -2.081  -8.470   5.625  0.00  0.00    +0.418 C 
ATOM     19  F   UNL     1      -3.357  -8.839   5.187  0.00  0.00    -0.166 F 
ATOM     20  F   UNL     1      -1.210  -9.557   5.494  0.00  0.00    -0.166 F 
ATOM     21  F   UNL     1      -2.143  -8.081   6.967  0.00  0.00    -0.166 F 
ENDBRANCH  13  18
BRANCH  15  22
ATOM     22  O   UNL     1       1.396  -5.230   4.581  0.00  0.00    -0.485 OA
BRANCH  22  23
ATOM     23  C   UNL     1       2.131  -5.831   5.649  0.00  0.00    +0.264 C 
BRANCH  23  24
ATOM     24  C   UNL     1       3.461  -5.136   5.797  0.00  0.00    -0.008 A 
ATOM     25  C   UNL     1       4.559  -5.588   5.088  0.00  0.00    +0.007 A 
ATOM     26  C   UNL     1       5.778  -4.951   5.223  0.00  0.00    +0.003 A 
ATOM     27  C   UNL     1       5.900  -3.863   6.067  0.00  0.00    +0.033 A 
ATOM     28  C   UNL     1       4.802  -3.411   6.774  0.00  0.00    +0.127 A 
ATOM     29  C   UNL     1       3.581  -4.045   6.636  0.00  0.00    +0.039 A 
BRANCH  28  30
ATOM     30  N   UNL     1       4.932  -2.245   7.678  0.00  0.00    +0.056 N 
ATOM     31  O   UNL     1       5.999  -1.689   7.796  0.00  0.00    -0.126 OA
ATOM     32  O   UNL     1       3.972  -1.850   8.297  0.00  0.00    -0.126 OA
ENDBRANCH  28  30
ENDBRANCH  23  24
ENDBRANCH  22  23
ENDBRANCH  15  22
TORSDOF 5
