REMARK  Name = CHEMBL540744
REMARK  4 active torsions:
REMARK  status: ('A' for Active; 'I' for Inactive)
REMARK    1  A    between atoms: C_4  and  N_18
REMARK    2  A    between atoms: C_5  and  C_7
REMARK    3  A    between atoms: C_7  and  C_8
REMARK    4  A    between atoms: C_8  and  N_9
REMARK                            x       y       z     vdW  Elec       q    Type
REMARK                         _______ _______ _______ _____ _____    ______ ____
ROOT
ATOM      1  C   UNL     1       1.333  -2.704   1.413  0.00  0.00    +0.126 C 
ENDROOT
BRANCH   1   2
ATOM      2  N   UNL     1       1.399  -4.167   1.402  0.00  0.00    -0.345 N 
ATOM      3  C   UNL     1       0.321  -5.003   1.478  0.00  0.00    +0.088 A 
ATOM      4  C   UNL     1       0.730  -6.283   1.442  0.00  0.00    +0.045 A 
ATOM      5  C   UNL     1       2.190  -6.265   1.334  0.00  0.00    +0.064 A 
ATOM      6  C   UNL     1       2.557  -4.906   1.308  0.00  0.00    +0.066 A 
ATOM      7  C   UNL     1       3.904  -4.574   1.203  0.00  0.00    +0.029 A 
ATOM      8  C   UNL     1       4.828  -5.601   1.125  0.00  0.00    +0.019 A 
ATOM      9  C   UNL     1       4.395  -6.917   1.153  0.00  0.00    +0.083 A 
ATOM     10  N   UNL     1       3.118  -7.215   1.260  0.00  0.00    -0.359 N 
ATOM     11  H   UNL     1       2.847  -8.146   1.276  0.00  0.00    +0.165 HD
ENDBRANCH   1   2
BRANCH   1  12
ATOM     12  C   UNL     1       1.321  -2.183  -0.025  0.00  0.00    +0.059 C 
BRANCH  12  17
ATOM     13  C   UNL     1      -0.034   1.340  -0.096  0.00  0.00    +0.000 A 
ATOM     14  C   UNL     1       1.127   2.084   0.004  0.00  0.00    +0.002 A 
ATOM     15  C   UNL     1       2.351   1.447   0.095  0.00  0.00    +0.033 A 
ATOM     16  C   UNL     1       2.413   0.066   0.085  0.00  0.00    +0.129 A 
ATOM     17  C   UNL     1       1.253  -0.678  -0.014  0.00  0.00    -0.016 A 
ATOM     18  C   UNL     1       0.029  -0.041  -0.106  0.00  0.00    +0.006 A 
BRANCH  16  19
ATOM     19  N   UNL     1       3.724  -0.616   0.181  0.00  0.00    +0.057 N 
ATOM     20  O   UNL     1       4.745   0.031   0.158  0.00  0.00    -0.126 OA
ATOM     21  O   UNL     1       3.772  -1.820   0.281  0.00  0.00    -0.126 OA
ENDBRANCH  16  19
ENDBRANCH  12  17
ENDBRANCH   1  12
TORSDOF 4
