REMARK  Name = CHEMBL400726
REMARK  9 active torsions:
REMARK  status: ('A' for Active; 'I' for Inactive)
REMARK    1  A    between atoms: C_6  and  C_7
REMARK    2  A    between atoms: C_7  and  C_8
REMARK    3  A    between atoms: N_13  and  C_14
REMARK    4  A    between atoms: C_17  and  O_21
REMARK    5  A    between atoms: O_21  and  C_22
REMARK    6  A    between atoms: C_24  and  C_31
REMARK    7  A    between atoms: C_31  and  N_32
REMARK    8  A    between atoms: C_34  and  C_36
REMARK    9  A    between atoms: C_36  and  N_37
REMARK                            x       y       z     vdW  Elec       q    Type
REMARK                         _______ _______ _______ _____ _____    ______ ____
ROOT
ATOM      1  C   UNL     1      -4.796  -2.753  -4.494  0.00  0.00    +0.038 A 
ATOM      2  C   UNL     1      -5.673  -1.833  -5.054  0.00  0.00    +0.027 A 
ATOM      3  C   UNL     1      -6.052  -1.957  -6.376  0.00  0.00    +0.051 A 
ATOM      4  C   UNL     1      -5.558  -2.999  -7.146  0.00  0.00    +0.166 A 
ATOM      5  C   UNL     1      -4.680  -3.919  -6.588  0.00  0.00    +0.167 A 
ATOM      6  C   UNL     1      -4.296  -3.793  -5.265  0.00  0.00    +0.065 A 
ATOM      7  F   UNL     1      -4.198  -4.934  -7.337  0.00  0.00    -0.202 F 
ENDROOT
BRANCH   1  13
ATOM      8  C   UNL     1      -1.513  -3.087  -1.127  0.00  0.00    +0.225 C 
ATOM      9  O   UNL     1      -0.742  -3.559  -1.935  0.00  0.00    -0.275 OA
ATOM     10  N   UNL     1      -2.765  -2.758  -1.503  0.00  0.00    -0.240 N 
ATOM     11  C   UNL     1      -3.160  -2.955  -2.777  0.00  0.00    +0.310 C 
ATOM     12  O   UNL     1      -2.387  -3.429  -3.586  0.00  0.00    -0.252 OA
ATOM     13  N   UNL     1      -4.412  -2.627  -3.153  0.00  0.00    -0.269 N 
ATOM     14  H   UNL     1      -3.382  -2.380  -0.857  0.00  0.00    +0.159 HD
ATOM     15  H   UNL     1      -5.047  -2.304  -2.494  0.00  0.00    +0.156 HD
BRANCH   8  16
ATOM     16  C   UNL     1      -1.072  -2.866   0.296  0.00  0.00    +0.131 C 
BRANCH  16  22
ATOM     17  C   UNL     1       1.389  -2.416   0.239  0.00  0.00    +0.007 A 
ATOM     18  C   UNL     1       2.702  -2.824   0.383  0.00  0.00    +0.038 A 
ATOM     19  C   UNL     1       2.985  -4.131   0.742  0.00  0.00    +0.123 A 
ATOM     20  C   UNL     1       1.952  -5.028   0.956  0.00  0.00    +0.038 A 
ATOM     21  C   UNL     1       0.640  -4.618   0.812  0.00  0.00    +0.007 A 
ATOM     22  C   UNL     1       0.359  -3.313   0.454  0.00  0.00    -0.038 A 
ATOM     23  F   UNL     1       4.267  -4.531   0.882  0.00  0.00    -0.205 F 
ENDBRANCH  16  22
ENDBRANCH   8  16
ENDBRANCH   1  13
BRANCH   4  24
ATOM     24  O   UNL     1      -5.932  -3.120  -8.448  0.00  0.00    -0.433 OA
BRANCH  24  25
ATOM     25  C   UNL     1      -5.051  -2.737  -9.401  0.00  0.00    +0.248 A 
ATOM     26  C   UNL     1      -5.344  -2.939 -10.767  0.00  0.00    +0.132 A 
ATOM     27  C   UNL     1      -6.417  -3.486 -11.445  0.00  0.00    -0.001 A 
ATOM     28  C   UNL     1      -6.120  -3.402 -12.806  0.00  0.00    +0.027 A 
ATOM     29  C   UNL     1      -4.898  -2.818 -12.933  0.00  0.00    +0.113 A 
ATOM     30  N   UNL     1      -4.417  -2.533 -11.709  0.00  0.00    -0.233 N 
ATOM     31  N   UNL     1      -3.229  -1.940 -11.259  0.00  0.00    -0.155 NA
ATOM     32  C   UNL     1      -3.021  -1.783  -9.981  0.00  0.00    +0.247 A 
ATOM     33  N   UNL     1      -3.909  -2.165  -9.064  0.00  0.00    -0.198 NA
BRANCH  27  34
ATOM     34  C   UNL     1      -7.667  -4.063 -10.833  0.00  0.00    +0.122 C 
BRANCH  34  35
ATOM     35  N   UNL     1      -8.581  -2.973 -10.468  0.00  0.00    -0.298 NA
ATOM     36  C   UNL     1      -8.396  -2.577  -9.059  0.00  0.00    +0.087 C 
ATOM     37  C   UNL     1      -9.924  -2.473  -8.946  0.00  0.00    -0.000 C 
ATOM     38  C   UNL     1      -9.906  -3.499 -10.088  0.00  0.00    +0.087 C 
BRANCH  37  39
ATOM     39  C   UNL     1     -10.489  -1.107  -9.339  0.00  0.00    -0.081 C 
BRANCH  39  40
ATOM     40  N   UNL     1     -11.935  -1.083  -9.080  0.00  0.00    +0.378 N 
ATOM     41  H   UNL     1     -12.308  -0.182  -9.339  0.00  0.00    -0.090 HD
ATOM     42  H   UNL     1     -12.386  -1.803  -9.623  0.00  0.00    -0.090 HD
ATOM     43  H   UNL     1     -12.104  -1.246  -8.098  0.00  0.00    -0.090 HD
ENDBRANCH  39  40
ENDBRANCH  37  39
ENDBRANCH  34  35
ENDBRANCH  27  34
ENDBRANCH  24  25
ENDBRANCH   4  24
TORSDOF 9
