REMARK  Name = CHEMBL462023
REMARK  9 active torsions:
REMARK  status: ('A' for Active; 'I' for Inactive)
REMARK    1  A    between atoms: C_1  and  C_2
REMARK    2  A    between atoms: C_2  and  C_3
REMARK    3  A    between atoms: C_2  and  N_4
REMARK    4  A    between atoms: C_6  and  C_9
REMARK    5  A    between atoms: C_14  and  O_18
REMARK    6  A    between atoms: O_18  and  C_19
REMARK    7  A    between atoms: C_22  and  N_26
REMARK    8  A    between atoms: C_27  and  C_29
REMARK    9  A    between atoms: N_33  and  C_35
REMARK                            x       y       z     vdW  Elec       q    Type
REMARK                         _______ _______ _______ _____ _____    ______ ____
ROOT
ATOM      1  C   UNL     1      -1.398  -6.029   8.530  0.00  0.00    +0.164 A 
ATOM      2  C   UNL     1      -0.438  -6.225   9.512  0.00  0.00    +0.051 A 
ATOM      3  C   UNL     1      -0.733  -6.988  10.625  0.00  0.00    +0.027 A 
ATOM      4  C   UNL     1      -1.991  -7.560  10.761  0.00  0.00    +0.036 A 
ATOM      5  C   UNL     1      -2.953  -7.365   9.780  0.00  0.00    +0.065 A 
ATOM      6  C   UNL     1      -2.659  -6.596   8.668  0.00  0.00    +0.167 A 
ATOM      7  F   UNL     1      -3.596  -6.401   7.715  0.00  0.00    -0.202 F 
ENDROOT
BRANCH   4   8
ATOM      8  N   UNL     1      -2.289  -8.334  11.890  0.00  0.00    -0.285 N 
ATOM      9  C   UNL     1      -1.768  -8.006  13.089  0.00  0.00    +0.222 C 
ATOM     10  O   UNL     1      -0.985  -7.085  13.178  0.00  0.00    -0.275 OA
ATOM     11  H   UNL     1      -2.870  -9.107  11.809  0.00  0.00    +0.155 HD
BRANCH   9  12
ATOM     12  C   UNL     1      -2.160  -8.784  14.319  0.00  0.00    +0.102 C 
ATOM     13  C   UNL     1      -3.646  -8.546  14.675  0.00  0.00    +0.110 C 
ATOM     14  C   UNL     1      -3.666  -8.518  16.187  0.00  0.00    +0.221 C 
ATOM     15  O   UNL     1      -4.660  -8.634  16.871  0.00  0.00    -0.275 OA
ATOM     16  N   UNL     1      -2.420  -8.348  16.663  0.00  0.00    -0.271 N 
ATOM     17  C   UNL     1      -1.444  -8.234  15.572  0.00  0.00    +0.127 C 
BRANCH  16  18
ATOM     18  C   UNL     1      -2.095  -8.288  18.023  0.00  0.00    +0.036 A 
ATOM     19  C   UNL     1      -3.068  -8.537  18.982  0.00  0.00    +0.023 A 
ATOM     20  C   UNL     1      -2.744  -8.476  20.323  0.00  0.00    +0.002 A 
ATOM     21  C   UNL     1      -1.453  -8.168  20.711  0.00  0.00    +0.000 A 
ATOM     22  C   UNL     1      -0.482  -7.919  19.758  0.00  0.00    +0.002 A 
ATOM     23  C   UNL     1      -0.798  -7.984  18.415  0.00  0.00    +0.023 A 
ENDBRANCH  16  18
ENDBRANCH   9  12
ENDBRANCH   4   8
BRANCH   1  24
ATOM     24  O   UNL     1      -1.107  -5.278   7.434  0.00  0.00    -0.452 OA
BRANCH  24  30
ATOM     25  C   UNL     1      -0.261  -1.639   4.325  0.00  0.00    +0.040 A 
ATOM     26  C   UNL     1      -0.922  -1.007   5.329  0.00  0.00    +0.046 A 
ATOM     27  C   UNL     1      -1.354  -1.735   6.454  0.00  0.00    +0.082 A 
ATOM     28  C   UNL     1      -1.048  -3.113   6.435  0.00  0.00    +0.080 A 
ATOM     29  S   UNL     1      -0.201  -3.330   4.891  0.00  0.00    -0.082 S 
ATOM     30  C   UNL     1      -1.410  -3.955   7.470  0.00  0.00    +0.146 A 
ATOM     31  C   UNL     1      -2.095  -3.403   8.551  0.00  0.00    +0.067 A 
ATOM     32  C   UNL     1      -2.375  -2.048   8.531  0.00  0.00    +0.115 A 
ATOM     33  N   UNL     1      -2.021  -1.273   7.537  0.00  0.00    -0.254 NA
BRANCH  25  36
ATOM     34  N   UNL     1       1.238  -0.840   1.120  0.00  0.00    -0.335 N 
ATOM     35  C   UNL     1       0.925  -1.750   2.090  0.00  0.00    +0.114 A 
ATOM     36  C   UNL     1       0.272  -1.068   3.070  0.00  0.00    +0.071 A 
ATOM     37  N   UNL     1       0.199   0.225   2.688  0.00  0.00    -0.345 N 
ATOM     38  C   UNL     1       0.778   0.363   1.530  0.00  0.00    +0.174 A 
ATOM     39  H   UNL     1      -0.216   0.939   3.198  0.00  0.00    +0.167 HD
BRANCH  34  41
ATOM     40  C   UNL     1       1.057  -0.740  -1.317  0.00  0.00    +0.030 C 
ATOM     41  C   UNL     1       1.948  -1.117  -0.131  0.00  0.00    +0.082 C 
ATOM     42  C   UNL     1       3.236  -0.293  -0.179  0.00  0.00    +0.030 C 
ENDBRANCH  34  41
ENDBRANCH  25  36
ENDBRANCH  24  30
ENDBRANCH   1  24
TORSDOF 7
