REMARK  Name = CHEMBL462232
REMARK  6 active torsions:
REMARK  status: ('A' for Active; 'I' for Inactive)
REMARK    1  A    between atoms: C_1  and  N_2
REMARK    2  A    between atoms: C_4  and  C_7
REMARK    3  A    between atoms: C_12  and  O_16
REMARK    4  A    between atoms: O_16  and  C_17
REMARK    5  A    between atoms: C_20  and  N_24
REMARK    6  A    between atoms: N_30  and  C_33
REMARK                            x       y       z     vdW  Elec       q    Type
REMARK                         _______ _______ _______ _____ _____    ______ ____
ROOT
ATOM      1  C   UNL     1      -0.069  -6.628  -6.710  0.00  0.00    +0.164 A 
ATOM      2  C   UNL     1       0.371  -7.888  -6.332  0.00  0.00    +0.051 A 
ATOM      3  C   UNL     1       0.388  -8.919  -7.251  0.00  0.00    +0.027 A 
ATOM      4  C   UNL     1      -0.037  -8.696  -8.554  0.00  0.00    +0.038 A 
ATOM      5  C   UNL     1      -0.479  -7.436  -8.934  0.00  0.00    +0.065 A 
ATOM      6  C   UNL     1      -0.500  -6.405  -8.012  0.00  0.00    +0.167 A 
ATOM      7  F   UNL     1      -0.934  -5.179  -8.379  0.00  0.00    -0.202 F 
ENDROOT
BRANCH   4   8
ATOM      8  N   UNL     1      -0.020  -9.742  -9.485  0.00  0.00    -0.269 N 
ATOM      9  C   UNL     1       0.094  -9.472 -10.801  0.00  0.00    +0.314 C 
ATOM     10  O   UNL     1       0.039  -8.322 -11.192  0.00  0.00    -0.252 OA
ATOM     11  N   UNL     1       0.269 -10.476 -11.683  0.00  0.00    -0.208 N 
ATOM     12  C   UNL     1       0.233 -11.910 -11.359  0.00  0.00    +0.139 C 
ATOM     13  C   UNL     1       0.488 -12.600 -12.713  0.00  0.00    +0.135 C 
ATOM     14  N   UNL     1       0.640 -11.482 -13.656  0.00  0.00    -0.254 N 
ATOM     15  C   UNL     1       0.497 -10.326 -12.994  0.00  0.00    +0.317 C 
ATOM     16  O   UNL     1       0.571  -9.240 -13.534  0.00  0.00    -0.252 OA
ATOM     17  H   UNL     1      -0.091 -10.662  -9.184  0.00  0.00    +0.156 HD
BRANCH  14  18
ATOM     18  C   UNL     1       0.889 -11.606 -15.027  0.00  0.00    +0.038 A 
ATOM     19  C   UNL     1       1.213 -10.485 -15.779  0.00  0.00    +0.023 A 
ATOM     20  C   UNL     1       1.459 -10.610 -17.133  0.00  0.00    +0.002 A 
ATOM     21  C   UNL     1       1.383 -11.851 -17.738  0.00  0.00    +0.000 A 
ATOM     22  C   UNL     1       1.060 -12.969 -16.992  0.00  0.00    +0.002 A 
ATOM     23  C   UNL     1       0.819 -12.851 -15.637  0.00  0.00    +0.023 A 
ENDBRANCH  14  18
ENDBRANCH   4   8
BRANCH   1  24
ATOM     24  O   UNL     1      -0.084  -5.613  -5.806  0.00  0.00    -0.452 OA
BRANCH  24  30
ATOM     25  C   UNL     1      -1.323  -2.397  -2.378  0.00  0.00    +0.042 A 
ATOM     26  C   UNL     1      -2.534  -2.847  -2.797  0.00  0.00    +0.046 A 
ATOM     27  C   UNL     1      -2.611  -3.819  -3.812  0.00  0.00    +0.082 A 
ATOM     28  C   UNL     1      -1.370  -4.255  -4.325  0.00  0.00    +0.080 A 
ATOM     29  S   UNL     1      -0.184  -3.313  -3.401  0.00  0.00    -0.081 S 
ATOM     30  C   UNL     1      -1.287  -5.206  -5.325  0.00  0.00    +0.146 A 
ATOM     31  C   UNL     1      -2.477  -5.733  -5.825  0.00  0.00    +0.067 A 
ATOM     32  C   UNL     1      -3.672  -5.278  -5.295  0.00  0.00    +0.115 A 
ATOM     33  N   UNL     1      -3.721  -4.376  -4.348  0.00  0.00    -0.254 NA
BRANCH  25  37
ATOM     34  C   UNL     1       1.084   0.688   0.736  0.00  0.00    +0.150 C 
ATOM     35  N   UNL     1       0.031  -0.042   0.025  0.00  0.00    -0.339 N 
ATOM     36  C   UNL     1       0.215  -0.971  -0.960  0.00  0.00    +0.115 A 
ATOM     37  C   UNL     1      -1.024  -1.391  -1.337  0.00  0.00    +0.095 A 
ATOM     38  N   UNL     1      -1.929  -0.724  -0.591  0.00  0.00    -0.235 NA
ATOM     39  C   UNL     1      -1.305   0.077   0.226  0.00  0.00    +0.199 A 
ENDBRANCH  25  37
ENDBRANCH  24  30
ENDBRANCH   1  24
TORSDOF 5
