REMARK  Name = CHEMBL598911
REMARK  6 active torsions:
REMARK  status: ('A' for Active; 'I' for Inactive)
REMARK    1  A    between atoms: C_1  and  C_2
REMARK    2  A    between atoms: C_2  and  C_3
REMARK    3  A    between atoms: C_2  and  O_12
REMARK    4  A    between atoms: O_12  and  C_13
REMARK    5  A    between atoms: C_20  and  C_23
REMARK    6  A    between atoms: C_24  and  C_25
REMARK                            x       y       z     vdW  Elec       q    Type
REMARK                         _______ _______ _______ _____ _____    ______ ____
ROOT
ATOM      1  C   UNL     1       2.014  -0.764   1.016  0.00  0.00    +0.122 A 
ATOM      2  C   UNL     1       2.654  -0.485  -0.196  0.00  0.00    +0.048 A 
ATOM      3  C   UNL     1       3.975  -0.760  -0.371  0.00  0.00    +0.032 A 
ATOM      4  C   UNL     1       4.716  -1.334   0.677  0.00  0.00    +0.071 A 
ATOM      5  C   UNL     1       4.067  -1.617   1.906  0.00  0.00    +0.004 A 
ATOM      6  C   UNL     1       2.703  -1.316   2.058  0.00  0.00    +0.055 A 
ATOM      7  C   UNL     1       4.806  -2.191   2.954  0.00  0.00    +0.019 A 
ATOM      8  C   UNL     1       6.155  -2.456   2.732  0.00  0.00    -0.006 A 
ATOM      9  C   UNL     1       6.725  -2.145   1.482  0.00  0.00    +0.119 A 
ATOM     10  N   UNL     1       6.016  -1.611   0.522  0.00  0.00    -0.254 NA
ENDROOT
BRANCH   8  11
ATOM     11  C   UNL     1       6.978  -3.056   3.794  0.00  0.00    +0.014 C 
ATOM     12  C   UNL     1       8.284  -3.311   3.573  0.00  0.00    +0.067 C 
BRANCH  12  13
ATOM     13  C   UNL     1       9.102  -3.907   4.630  0.00  0.00    +0.234 C 
ATOM     14  O   UNL     1       8.604  -4.174   5.708  0.00  0.00    -0.271 OA
ATOM     15  N   UNL     1      10.407  -4.162   4.409  0.00  0.00    -0.326 N 
ATOM     16  H   UNL     1      10.804  -3.949   3.550  0.00  0.00    +0.145 HD
ATOM     17  H   UNL     1      10.950  -4.557   5.109  0.00  0.00    +0.145 HD
ENDBRANCH  12  13
ENDBRANCH   8  11
BRANCH   1  18
ATOM     18  O   UNL     1       0.693  -0.477   1.160  0.00  0.00    -0.484 OA
BRANCH  18  20
ATOM     19  C   UNL     1       0.195   1.499  -0.138  0.00  0.00    +0.057 C 
ATOM     20  C   UNL     1       0.000  -0.012  -0.000  0.00  0.00    +0.203 C 
BRANCH  20  21
ATOM     21  C   UNL     1      -1.469  -0.319   0.136  0.00  0.00    +0.032 A 
ATOM     22  C   UNL     1      -2.123  -0.058   1.327  0.00  0.00    +0.049 A 
ATOM     23  C   UNL     1      -3.472  -0.340   1.452  0.00  0.00    +0.023 A 
ATOM     24  C   UNL     1      -4.167  -0.882   0.388  0.00  0.00    +0.041 A 
ATOM     25  C   UNL     1      -3.515  -1.143  -0.804  0.00  0.00    +0.142 A 
ATOM     26  C   UNL     1      -2.165  -0.857  -0.932  0.00  0.00    +0.084 A 
ATOM     27 CL   UNL     1      -1.346  -1.177  -2.428  0.00  0.00    -0.080 Cl
ATOM     28  F   UNL     1      -4.194  -1.673  -1.845  0.00  0.00    -0.204 F 
ATOM     29 CL   UNL     1      -1.251   0.623   2.664  0.00  0.00    -0.083 Cl
ENDBRANCH  20  21
ENDBRANCH  18  20
ENDBRANCH   1  18
TORSDOF 5
