REMARK  Name = CHEMBL462023
REMARK  9 active torsions:
REMARK  status: ('A' for Active; 'I' for Inactive)
REMARK    1  A    between atoms: C_1  and  C_2
REMARK    2  A    between atoms: C_2  and  C_3
REMARK    3  A    between atoms: C_2  and  N_4
REMARK    4  A    between atoms: C_6  and  C_9
REMARK    5  A    between atoms: C_14  and  O_18
REMARK    6  A    between atoms: O_18  and  C_19
REMARK    7  A    between atoms: C_22  and  N_26
REMARK    8  A    between atoms: C_27  and  C_29
REMARK    9  A    between atoms: N_33  and  C_35
REMARK                            x       y       z     vdW  Elec       q    Type
REMARK                         _______ _______ _______ _____ _____    ______ ____
ROOT
ATOM      1  C   UNL     1      -1.380  -6.067   8.491  0.00  0.00    +0.164 A 
ATOM      2  C   UNL     1      -0.422  -6.246   9.479  0.00  0.00    +0.051 A 
ATOM      3  C   UNL     1      -0.716  -7.000  10.598  0.00  0.00    +0.027 A 
ATOM      4  C   UNL     1      -1.970  -7.580  10.736  0.00  0.00    +0.036 A 
ATOM      5  C   UNL     1      -2.930  -7.402   9.748  0.00  0.00    +0.065 A 
ATOM      6  C   UNL     1      -2.637  -6.642   8.630  0.00  0.00    +0.167 A 
ATOM      7  F   UNL     1      -3.571  -6.463   7.671  0.00  0.00    -0.202 F 
ENDROOT
BRANCH   4   8
ATOM      8  N   UNL     1      -2.268  -8.345  11.871  0.00  0.00    -0.285 N 
ATOM      9  C   UNL     1      -1.754  -8.001  13.069  0.00  0.00    +0.222 C 
ATOM     10  O   UNL     1      -0.978  -7.073  13.152  0.00  0.00    -0.275 OA
ATOM     11  H   UNL     1      -2.843  -9.122  11.795  0.00  0.00    +0.155 HD
BRANCH   9  12
ATOM     12  C   UNL     1      -2.145  -8.770  14.304  0.00  0.00    +0.102 C 
ATOM     13  C   UNL     1      -1.591 -10.213  14.257  0.00  0.00    +0.110 C 
ATOM     14  C   UNL     1      -0.269 -10.126  14.987  0.00  0.00    +0.221 C 
ATOM     15  O   UNL     1       0.609 -10.962  14.935  0.00  0.00    -0.275 OA
ATOM     16  N   UNL     1      -0.208  -8.989  15.701  0.00  0.00    -0.271 N 
ATOM     17  C   UNL     1      -1.438  -8.202  15.555  0.00  0.00    +0.127 C 
BRANCH  16  18
ATOM     18  C   UNL     1       0.886  -8.605  16.483  0.00  0.00    +0.036 A 
ATOM     19  C   UNL     1       2.057  -9.352  16.456  0.00  0.00    +0.023 A 
ATOM     20  C   UNL     1       3.136  -8.971  17.229  0.00  0.00    +0.002 A 
ATOM     21  C   UNL     1       3.052  -7.846  18.029  0.00  0.00    +0.000 A 
ATOM     22  C   UNL     1       1.888  -7.101  18.059  0.00  0.00    +0.002 A 
ATOM     23  C   UNL     1       0.807  -7.473  17.284  0.00  0.00    +0.023 A 
ENDBRANCH  16  18
ENDBRANCH   9  12
ENDBRANCH   4   8
BRANCH   1  24
ATOM     24  O   UNL     1      -1.089  -5.325   7.389  0.00  0.00    -0.452 OA
BRANCH  24  30
ATOM     25  C   UNL     1      -0.257  -1.711   4.247  0.00  0.00    +0.040 A 
ATOM     26  C   UNL     1      -0.926  -1.074   5.242  0.00  0.00    +0.046 A 
ATOM     27  C   UNL     1      -1.358  -1.793   6.372  0.00  0.00    +0.082 A 
ATOM     28  C   UNL     1      -1.042  -3.170   6.368  0.00  0.00    +0.080 A 
ATOM     29  S   UNL     1      -0.188  -3.396   4.830  0.00  0.00    -0.082 S 
ATOM     30  C   UNL     1      -1.402  -4.004   7.411  0.00  0.00    +0.146 A 
ATOM     31  C   UNL     1      -2.095  -3.446   8.484  0.00  0.00    +0.067 A 
ATOM     32  C   UNL     1      -2.385  -2.093   8.448  0.00  0.00    +0.115 A 
ATOM     33  N   UNL     1      -2.032  -1.326   7.448  0.00  0.00    -0.254 NA
BRANCH  25  36
ATOM     34  N   UNL     1       1.249  -0.934   1.041  0.00  0.00    -0.335 N 
ATOM     35  C   UNL     1       0.939  -1.836   2.018  0.00  0.00    +0.114 A 
ATOM     36  C   UNL     1       0.277  -1.148   2.989  0.00  0.00    +0.071 A 
ATOM     37  N   UNL     1       0.196   0.140   2.594  0.00  0.00    -0.345 N 
ATOM     38  C   UNL     1       0.780   0.270   1.436  0.00  0.00    +0.174 A 
ATOM     39  H   UNL     1      -0.226   0.856   3.094  0.00  0.00    +0.167 HD
BRANCH  34  41
ATOM     40  C   UNL     1       1.077  -0.859  -1.398  0.00  0.00    +0.030 C 
ATOM     41  C   UNL     1       1.966  -1.218  -0.205  0.00  0.00    +0.082 C 
ATOM     42  C   UNL     1       3.249  -0.386  -0.257  0.00  0.00    +0.030 C 
ENDBRANCH  34  41
ENDBRANCH  25  36
ENDBRANCH  24  30
ENDBRANCH   1  24
TORSDOF 7
